90
CSD_code = PODGIY | q = 0 | S = 0 | Stoichiometry = C35H45CrO5P3Se | MND = 6
Se        1.35813119762677    3.89044415197700    3.16134316764025
Cr       -1.04006449315792    4.31907817811326    2.23189108197235
P         1.08342195580823    2.33630305823778    4.82163705395982
P         2.27441847279123    3.61341121965652    6.18138135148547
P         1.33722559130543    5.25012901279273    5.04230556923187
O        -2.42409136181446    2.24863957849633    3.91624036983736
O        -1.03225062453851    2.18388889726705    0.12275159005403
O        -0.15658684716024    6.36682543220469    0.21402058769193
O        -1.65447328572758    6.66961201524775    4.00404008645144
O        -3.77891725331106    4.84655227721195    1.14765637150196
C         2.81158857389555    6.43671510697964    4.79394051906230
C         2.78701553602135    7.09315084324014    6.14764420187142
C         3.85711053304356    6.66285325891853    6.85317007182806
C         4.68870166073782    5.82065112384752    6.00320449741118
C         4.12258606701771    5.71678897642250    4.77834730688534
C         2.48990718341096    7.30259767929136    3.58740014332228
C         1.71804080540233    8.05379429465432    6.53929046367737
C         4.24398231191385    7.02693214625939    8.24654352821623
C         5.97395908264734    5.23771114718259    6.48515984237061
C         4.67873281317676    5.10440126728427    3.54320164745857
C         1.13049513742860    3.46725628859687    7.69941433388080
C         1.56531372957385    2.14959268403281    8.28870683668948
C         0.56352641686955    1.25646217550634    8.15945552157136
C        -0.58914161368060    1.91449345401437    7.55456793063480
C        -0.29578387468386    3.21122402956302    7.31280563311962
C         1.36157880108079    4.67504042708202    8.59493917965912
C         2.91344996269870    1.97550332236495    8.89829280108108
C         0.53183316670044   -0.16849768125954    8.59649400950683
C        -1.87050018662437    1.20403801901495    7.28544837322697
C        -1.21656278362082    4.25382220487138    6.77777056549924
C         2.24989795187567    0.96294708164752    4.19298285437395
C         1.56979704175036    0.61516414435000    2.89369458179490
C         2.35767230995294    1.01799062898437    1.87307297437318
C         3.61400774142984    1.53378704134015    2.40958660244464
C         3.59074610331789    1.47338704842396    3.76060799548630
C         2.25396931843519   -0.11816247705641    5.26270869658464
C         0.23952775615138   -0.05485976850883    2.85158760675710
C         2.09545503568405    0.92557395882046    0.40890461098223
C         4.71897989791431    1.98590809012522    1.51588840512540
C         4.70158559135476    1.74507216969004    4.71498041015750
C        -1.81659290458727    3.04660825033766    3.35164455630891
C        -0.91217989697406    2.96989908703375    0.95337164493542
C        -0.39504554934426    5.57116618579706    1.00922016768439
C        -1.34342199074037    5.73862990584112    3.40235488722768
C        -2.72542106967257    4.64268026271921    1.57301290363289
H         3.27178760768348    8.04587732366588    3.44059099386716
H         2.41723948540699    6.68357207833975    2.69028289306851
H         1.54051099582612    7.81760818270582    3.72564122575368
H         1.64095613462138    8.14478285461818    7.62056554647782
H         1.93540495835773    9.04260779286517    6.13257310797489
H         0.75149300950578    7.73755913837093    6.14240274911531
H         3.41147945599189    7.47564945844428    8.78185128719372
H         4.58219993681268    6.14875886942319    8.79362735956042
H         5.06505902163724    7.74423705763148    8.23070882890269
H         6.47898453937046    4.68469826669774    5.69876050951053
H         6.63738089457716    6.02714159273008    6.83622519171851
H         5.79204734275371    4.56000921510280    7.31950525976961
H         5.64728666866497    4.65269408223228    3.73533280077857
H         4.00984450772825    4.33676371033839    3.14703592522066
H         4.80207738720250    5.86636132753317    2.77338910717874
H         0.74788244122763    4.59306865919502    9.49044349386249
H         2.40709371252199    4.73503538037827    8.88759666732106
H         1.10436980209914    5.59371259857002    8.07046599675816
H         3.19982615894879    0.92690924230397    8.93424319589113
H         3.66138358016864    2.52294399641248    8.32152431420283
H         2.92349159032974    2.36335547083199    9.91808422919328
H         0.15125220644010   -0.80590078992924    7.79998684518238
H         1.52100325784531   -0.51674191542182    8.88212704135941
H        -0.13081504573093   -0.27952630715366    9.45530014401109
H        -1.70265410117604    0.37542620000249    6.59793551063445
H        -2.28016602174859    0.79327894877708    8.20785362824546
H        -2.60113752710901    1.87117154335116    6.83895572458278
H        -2.21510563081232    4.12287591207391    7.19120338060082
H        -0.86988634889287    5.25295199749681    7.03151359220054
H        -1.30177666591351    4.18734246214430    5.68748391317583
H         2.87942502402375   -0.95136390636731    4.94651121340658
H         2.63252266880585    0.27940258723690    6.20324288890632
H         1.24327273942206   -0.48403332417967    5.43122338045155
H        -0.27225513731564    0.14154634192393    1.91262473687164
H         0.35614151160230   -1.13527343641704    2.95494641411380
H        -0.39313962486371    0.29490246104166    3.66903738766531
H         1.10553315814801    0.52610357681184    0.20989745448609
H         2.17174994411027    1.91154664195228   -0.05018080206792
H         2.83122684412273    0.27734579781996   -0.06672590430445
H         5.57827453781936    2.32838668851506    2.08474658287462
H         5.03322779305566    1.16928721653412    0.86629104420297
H         4.37704844155087    2.80236905442013    0.88060436640194
H         5.64811028202632    1.81134195151878    4.18502789354336
H         4.54715816019979    2.67971861817082    5.25624146124285
H         4.77396629158928    0.94288918265123    5.44751788418988

