78
CSD_code = PODKOI | q = 0 | S = 0 | Stoichiometry = C24H41MoN4O4P3S | MND = 6
Mo        6.10165146201294    4.28592817427082    0.56619823717176
P         7.33149047861565    6.36923605650787    0.25842817885749
P         7.52286602776117    7.64117057348612    3.74513852530370
P         6.83646168176985    3.83506021355480    2.82409998610211
S         8.80062246875555    9.06125051751291    3.38533139756814
N         6.86698477784634    7.63103544047951    1.27249295708043
N         6.29817616444225    7.48722165569436    2.55617326202400
N         8.19456991060289    6.07412735690351    3.59637298363579
N         7.24517436474691    5.07629199552225    3.90836607671973
O         4.78764414795227    4.16623738173942   -2.20989805865919
O         3.72330243676074    6.08661083508261    1.36308709209461
O         4.36399758913373    1.74742730752893    0.72141524455641
O         7.90333444829687    2.29319775878188   -0.94655212115867
C         5.31974925395295    4.33030460880084   -1.20812162836271
C         4.65178117166567    5.44692534957935    1.17258581949655
C         5.01492291312252    2.69229666138493    0.72347240554693
C         7.36814554849624    3.07514850037853   -0.30101086820213
C         9.20994472240723    6.44847397970222    0.34254632266835
C         9.88183982049746    5.34933210809860   -0.47380234719228
C         9.83418038621059    7.80165967630400    0.00919685377322
C         6.95827553007666    7.30166036007810   -1.31101422820521
C         5.46504701663235    7.60134086078904   -1.38810678404497
C         7.43081097343589    6.54434604320371   -2.54637904798839
C         5.23591709458505    8.48030176744506    2.70865446852035
C         6.71047897640376    7.69981528612819    5.37554068630380
C         5.60231768047985    6.91670472404817    5.67677649817435
C         5.08468225098117    6.93105299043539    6.95882102985032
C         5.66794626875429    7.72212003760705    7.93685072502085
C         6.77083603096274    8.50418300884991    7.63412549318640
C         7.29657971892663    8.49119390303708    6.35456712883582
C         9.47666856748613    5.90119804316100    4.25793532740015
C         5.49702392447815    3.05487597874612    3.86885554202395
C         5.82876419950332    2.87659072963559    5.35330086931397
C         4.16934360808338    3.79424605562517    3.72458788812314
C         8.19862104484648    2.56043371941067    3.07757467643995
C         7.75150468030643    1.13648382848376    2.76774683957345
C         9.39627007200339    2.92997208739350    2.20314415928395
H         7.47215552492946    8.46064899956308    1.21028561177968
H         7.32164158412116    4.77053491326408    4.88036457878879
H         9.39107989218176    6.25009477692477    1.40969684789400
H         9.31007647510969    4.42600712807215   -0.42563042796027
H        10.88455206013770    5.15617185066643   -0.09427207322605
H         9.97199239885024    5.63744514118034   -1.51746715799919
H         9.43121625812224    8.60685634831714    0.61961564545147
H         9.70734567483398    8.05378692718092   -1.04085226034423
H        10.90343625377687    7.75275217582367    0.21165640369096
H         7.48657955717420    8.26221798323550   -1.23829482860405
H         5.12945217686913    8.11788258127862   -0.49107482525438
H         4.88795062721944    6.68514058877728   -1.49510985271661
H         5.25609132810469    8.23717437530084   -2.24730824186183
H         7.19696392646535    5.48268131391778   -2.45841844635704
H         8.50268675333085    6.64863637837670   -2.69270124633849
H         6.93390035951324    6.92828746987803   -3.43607013211122
H         5.59538398868879    9.49487480900816    2.49757262710930
H         4.85094769258128    8.44829201629867    3.72620597368544
H         4.43240546651805    8.23909255504275    2.01403009478832
H         5.15375927775318    6.31395551476919    4.90274665921098
H         4.22159948365601    6.32569914596079    7.19437620520921
H         5.25848248488734    7.73118811967801    8.93587684885535
H         7.22173818666302    9.12444469043453    8.39403761594235
H         8.15347555213156    9.09974636819960    6.09969611581021
H         9.98850666492860    5.02471059443727    3.86196622359881
H         9.36626332198598    5.78424716288393    5.34443517305965
H        10.08023506568853    6.78777842366235    4.06035170865167
H         5.37231683666668    2.06262830110541    3.41941133303677
H         6.81851000777257    2.45242616559511    5.50953404007516
H         5.10681215064688    2.19300257162931    5.79850370884409
H         5.75450219171334    3.82022945348600    5.89188957064113
H         3.73251488144625    3.62531724212102    2.74301662780940
H         4.30002416688356    4.86530865763458    3.85992898751261
H         3.46125690546599    3.43768972931162    4.47188061877066
H         8.50220920384709    2.62795286121049    4.13341626960120
H         7.10328228772802    0.73257052678249    3.54170029962365
H         8.62310673296169    0.48740206013345    2.69080715890765
H         7.22164654307752    1.10684127839082    1.81467430386923
H        10.32515801591060    2.56225027992815    2.63820891788392
H         9.46937946956551    4.00894734832662    2.07185863458358
H         9.29253515707889    2.48322959678664    1.21835309722416

