37
CSD_code = PODLOM | q = 0 | S = 0 | Stoichiometry = C11H19N3O3W | MND = 6
W         4.26720674174789    4.23516611255144   18.85949171984923
C         2.72771443927375    5.31763706943431   19.35938289910910
O         1.83142677183756    5.97230903067691   19.66727000629753
C         3.63771842377462    2.93869001678794   20.16858048144152
O         3.28288332190284    2.16981074070476   20.95157293016298
C         3.08430406772260    3.38936810008046   17.56362602831123
O         2.39982835665446    2.87693097958755   16.79260349081382
C         6.63384957873076    5.66255643342598   17.84489900124101
N         5.24334891551525    5.70440437443523   17.40951543168589
H         5.15161486338604    5.41652700054602   16.43723947132357
H         4.86112675869675    6.64465633961060   17.48651338813157
C         7.51717740352519    6.61821161878503   17.02943071245172
H         7.46102982777294    6.37637826092923   15.96913632800383
H         8.55788756851169    6.54960543663067   17.33856996292409
H         7.18928685692197    7.64779372085388   17.16391640609879
C         6.64879890723184    6.08441473123385   19.32407105583501
H         7.69098390509726    6.18195711994389   19.67123125110682
H         6.19038693916530    7.07775474617806   19.38394442159925
N         5.89100781827278    5.17168106674739   20.17862903342188
C         5.35003701616126    5.88968063184573   21.32761177534766
H         6.14587295102679    6.31046447515813   21.95893015760813
H         4.74140155449616    5.21018095219768   21.92126034638788
H         4.70240611783381    6.69579240033912   20.98632126240030
C         6.73126957350850    4.06773574613159   20.64041023382973
H         7.74516930700580    4.43443286973907   20.87521628493880
H         6.30149084001715    3.68418662437201   21.56813043414141
C         6.80656346566151    2.89861624052243   19.63832795722426
H         7.85243858014672    2.55236859796889   19.54876016821657
H         6.21153690963867    2.06740408174743   20.02300599438938
N         6.26577426537353    3.24220672861778   18.32984041299359
C         6.11964271383350    2.03004702862687   17.53431248096732
H         7.08533757299040    1.53026490890095   17.36853894916285
H         5.67279729614704    2.27112337035913   16.57081145227412
H         5.44740911980590    1.34422358473668   18.04696567814056
C         7.12258711495826    4.21541219341836   17.64897847715451
H         7.10938744690144    4.00892228741886   16.57297404195999
H         8.16719668875197    4.12818437875575   17.98577987305405

