64
CSD_code = PODMEA | q = 0 | S = 0 | Stoichiometry = C30H32OTi | MND = 8
Ti        4.56155195440780    9.72781652801706   10.37963170140006
O         3.69677979904034    9.34703570096629   11.84348804886963
C         5.96413869059435    8.15168244010716   11.32703501469899
C         6.76400185897530    9.30180494938033   11.11949078453993
C         6.81626207375430    9.54087593924286    9.72234157255724
C         6.05864602284790    8.52201728690505    9.06776623401229
C         5.53100413425813    7.66088258854060   10.06494739909660
C         7.49896734686484   10.01905474658669   12.21489283653033
C         7.68763278805432   10.53529189602669    9.00860084671613
C         6.07114860717093    8.28156516113050    7.58478132171051
C         4.80937861034394    6.35882623761893    9.88178274176260
C         5.30844681690043    7.81181178301173   12.60801688019030
C         5.75879018481252    6.93523904559845   13.57307415139440
C         5.02919357197981    6.72289968938276   14.74198013642079
C         3.83788887429956    7.41169806046728   14.91905940852937
C         3.36335739209923    8.29688374718802   13.96523974199599
C         4.08949264331688    8.51074372112057   12.79557167318587
C         5.53589237288053    5.76158514904728   15.77551177856567
C         4.88014591854621   11.77725508751098   10.56405937423069
C         3.69803063424376   12.27140283462486   11.28696282701693
C         2.61205918960946   12.85211913542322   10.62147507884628
C         1.48848137375052   13.26683496911296   11.31214907307508
C         1.42063583464709   13.12470436357375   12.68771344467873
C         2.49746870093165   12.57622645475825   13.36905347561824
C         3.62123430815249   12.16406944671537   12.68278891915584
C         3.05880829617428    9.88235967201327    8.96285951960160
C         2.48011676046473    8.54848194055864    8.74958046901642
C         2.58438791525054    7.87351685692663    7.52822486318662
C         2.03269736477179    6.61666937590715    7.35505144397402
C         1.35110476192069    6.00276957608579    8.39215269532401
C         1.21617018776088    6.66557107572407    9.60412469689629
C         1.76680080454751    7.91856327927674    9.78117953577342
H         8.40442498171959    9.46629575219334   12.47795909555005
H         7.79992947995226   11.02167483494045   11.91428283653253
H         6.88001340393715   10.08649466508302   13.11221929378370
H         8.59203974051128   10.04372545988600    8.64059798816903
H         7.17051686206781   10.96718721917395    8.14998730725866
H         7.99256237289553   11.34398584598857    9.67063392263916
H         7.06405791173443    7.94872338497567    7.27099139888529
H         5.35492209952772    7.50996229472337    7.31128827615751
H         5.83604862840029    9.19198145900764    7.02952868303739
H         4.10845798989565    6.19103203000766   10.70182973487826
H         4.26038673224027    6.32601428799534    8.94305941845761
H         5.52816136635599    5.53494302003436    9.88266966104570
H         6.69047610025690    6.40843972067746   13.41836261147069
H         3.26447029405940    7.25685779810755   15.82199152528311
H         2.43691776767032    8.83395935795197   14.11263970253538
H         4.89339922555307    5.75885845488319   16.65216002990249
H         5.57030879474141    4.75104728043372   15.36892116532733
H         6.54563558596025    6.02931087883848   16.08412357758108
H         5.78674947901063   11.97857591331325   11.14395708192383
H         4.96681557131109   12.24279849067428    9.56935866160939
H         2.65988256654027   12.98784745828584    9.54655793893206
H         0.66136477674440   13.70905885243914   10.77430797390634
H         0.54120885792310   13.44560040189261   13.22616379645719
H         2.45767400595629   12.47597108952850   14.44486093342451
H         4.46130139385814   11.74233721216284   13.22647782411141
H         2.30462243719486   10.53481093894792    9.42821041841122
H         3.39388395746319   10.32852835586141    8.01226199160680
H         3.08898904949875    8.35371127921090    6.69896642881404
H         2.12645917924991    6.11692239048221    6.40061333972194
H         0.91845339322132    5.02292792679189    8.25534474922156
H         0.67043286590447    6.19881358826941   10.41221550271103
H         1.64271733529282    8.44194361870182   10.72576944208872

