65
CSD_code = PODPEF | q = 0 | S = 0 | Stoichiometry = C30H29Cl2N3Pt | MND = 4
Pt        3.79978867483788    7.47914042481594    1.77226607666609
Cl        5.20082477180042    5.72557226680796    2.34033328301391
Cl        2.20528437333927    6.04466752809210    1.03687437462643
C         2.60148209484033    8.97084730900500    1.14475879624279
N         1.39994586839088    9.29973021852389    1.57886686300098
C         0.78207422361290   10.34189269136305    0.76706527226553
H         0.43500992712104   11.16406745418575    1.39612599938414
H        -0.07120294291419    9.93229664562176    0.21837844317353
C         1.92117336342299   10.76095466291494   -0.17076114740873
H         1.64026745654307   10.72319839122884   -1.22597490338135
H         2.29009023881053   11.76643958630222    0.05588322718414
N         2.94062950080257    9.75820954311248    0.11424716369754
C         5.34407991601195    8.51241884668738    2.15978580877534
N         6.42216647810942    8.95969265164451    2.05205167370921
C         0.72785650423458    8.66207560045897    2.69086892262998
H         1.45176256603766    7.93653620252972    3.09234675389543
C        -0.51865371214504    7.89803432457564    2.24456694853512
H        -0.23692700434592    7.18907496646800    1.46488868948881
H        -1.26163026078652    8.59237370772628    1.84411928924387
C        -1.10689644785272    7.15244725241803    3.43865415963196
H        -2.00431732924869    6.61452912456185    3.12891523394521
H        -0.38148438930381    6.41706524123487    3.78989429455765
C        -1.44303631440787    8.12129066505151    4.56860146517717
H        -1.83613824312275    7.57014356760552    5.42441503384938
H        -2.21860794917559    8.81529038207108    4.23437099981801
C        -0.20477797525708    8.90884100010864    4.98730569561855
H         0.54716042648198    8.22183065350377    5.37953596204562
H        -0.46051588738821    9.61518742234510    5.77958204518988
C         0.37617082248740    9.66181910409017    3.79314261387983
H        -0.36545810685717   10.37661360902635    3.42795457030552
H         1.27094193088912   10.21228696261768    4.09190003236567
C         4.20454274320357    9.71525369358988   -0.50116650672202
C         4.95303950582747   10.85062272490348   -0.68230996080444
H         4.56248444167416   11.82061002075810   -0.41117151697717
C         6.26935298314192   10.77250169432051   -1.18141232631483
C         7.07536556564442   11.91889699862155   -1.33934258561907
H         6.65537155783522   12.88626022590270   -1.10240268045104
C         8.36590624003946   11.81051579311054   -1.77621019170802
H         8.97904865595332   12.69205595682411   -1.88978704524938
C         8.90961066740241   10.55295024312329   -2.07775882206621
H         9.93365155254989   10.48680655901018   -2.41335618228784
C         8.15028328922882    9.42411945795639   -1.94522960567749
H         8.56221282446222    8.45300341216345   -2.17699387608476
C         6.81612489195716    9.50144605299794   -1.49783992876157
C         5.99917969706135    8.35840014265689   -1.36458284791310
H         6.39856561429656    7.39733061152843   -1.65090051662078
C         4.72310315487548    8.45510018484127   -0.88628143949746
H         4.08091494116577    7.58168734542067   -0.84935883737284
C         7.71055850502355    9.21591059768222    1.72020713373961
C         8.17095265051162   10.50862951721276    1.64196326621910
H         7.52009342388717   11.33418391899670    1.88894061117078
C         9.48653896257437   10.76076656607274    1.21360204774480
C         9.99213717278730   12.07247416686514    1.09467266940515
H         9.34977537035770   12.90028403308391    1.35804874070913
C        11.26569261007248   12.29139127978583    0.65062504818858
H        11.64610359071085   13.29825539297834    0.55937804337573
C        12.09342575483737   11.21061665034385    0.30898651657129
H        13.09689376153855   11.40244283377559   -0.04142790003686
C        11.63458665425998    9.92727111533839    0.42125957581093
H        12.26958997742291    9.09220244974216    0.16228512179343
C        10.32616872999784    9.66644744224539    0.87375130345714
C         9.82322902529579    8.35112384556744    0.99191648744693
H        10.47111502276096    7.52400261117541    0.74117764023370
C         8.54627306677109    8.11980991543224    1.40511396482010
H         8.14024481982687    7.12375853929262    1.49234095830615

