91
CSD_code = PODRIM | q = 0 | S = 0 | Stoichiometry = C42H32Br4LaN7O5 | MND = 10
La       -2.45523079113542    6.35419760499679   11.25368370991104
Br       -1.03591407877557    6.27267577126829   18.56727126069223
Br        1.38640297569678    8.42943485982532   13.92157983878817
Br       -0.63871856250439    2.44192964596056   17.46669315148230
Br       -4.89187124895083    2.65567679048081   13.74507973091369
O        -3.47301249073179    6.25184508350376    9.16273209478797
O        -2.46246382567109    8.05724717410354    9.60091876519852
O        -4.36205985511719    8.10724200097020    8.66422326126045
O        -1.22742447899505    7.66324973599686   12.70902329231649
O        -2.91705731419775    4.27821575665843   12.19542765367765
N        -0.02940367435417    6.62934802674863   10.24582997472073
N        -1.34996182463602    4.35854657298182    9.78646259689298
N        -0.33556875543304    4.89659451155857   12.75887876640832
N        -3.43300422386164    6.56832005658442   13.83111934085338
N        -3.44937310290109    7.48531444077965    9.14044803456444
N        -5.14841555952328    6.07696031468699   11.18827405872283
N        -4.03743678045143    8.47671954031423   11.68150461653025
C        -2.40295219718672    3.87040644741136   13.29117616492206
C        -3.11115761616297    3.09826262655899   14.21950760224289
C        -2.59933737295067    2.68322434015992   15.43716443135010
H        -3.21349328708257    2.10577124156142   16.11198424849660
C        -1.31194195083380    3.01939337558681   15.77809268393649
C        -0.49610845520104    3.76226314092391   14.90411907288835
C         0.83741839242438    4.12590150233441   15.17597755756005
H         1.28528064416828    3.84327762800121   16.11811469082090
C         1.54384394270879    4.82813545251532   14.23882942615763
H         2.56709139160328    5.12215929645762   14.41269947436612
C         0.91221149044381    5.18802004321500   13.04026981794246
H         1.46092202245952    5.75011883258057   12.29724527046560
C        -1.04256230542396    4.18414706413960   13.65895965996169
C         0.56184609541267    7.81720370971641   10.28688746909873
H        -0.05840812932384    8.64570974564158   10.60051499779204
C         1.89335998408700    8.01243766964234    9.96032045910096
H         2.33364548038475    8.99354045965644   10.04137470051013
C         2.65648899443695    6.93056370363243    9.53107759609243
C         4.09295185095069    7.10339320799193    9.16192936342073
H         4.19036620815455    7.84263322146495    8.36878871543145
H         4.53068948980180    6.16714287858012    8.82611677436043
H         4.65377819133723    7.46740829251517   10.02148162335389
C         2.02801715139143    5.69325165560005    9.46688406404624
H         2.57470141696824    4.83247951464806    9.11329261796900
C         0.69419963681518    5.57385367504648    9.85175276874352
C        -0.01626703797695    4.27777928661990    9.84608173075175
C         0.64898192749031    3.05528797428917    9.90571316766995
H         1.72330003080843    3.01775187560272   10.00210207623008
C        -0.08067797994922    1.87385364303667    9.88184157069230
C         0.58375611274628    0.54030861370420    9.99242714514761
H         1.66205451634831    0.62684856289752    9.88831084750518
H         0.20520872704965   -0.13919027534187    9.23147067032078
H         0.36535306738133    0.10124366735113   10.96566694406747
C        -1.46328047646424    1.97717999325183    9.75451034421615
H        -2.07467503230569    1.08918128807813    9.70505155269234
C        -2.04602211358599    3.23245793807422    9.71349191470111
H        -3.11663995346639    3.34785624202092    9.60630810101265
C        -1.21696788560483    7.39314579087093   13.95665764674618
C        -0.11208905440926    7.64390625536300   14.77808200357595
C        -0.05950387971093    7.31785187109630   16.12291242957102
H         0.83466227321342    7.52209108661186   16.69287304989303
C        -1.14786366425121    6.72667955022030   16.71899870400605
C        -2.32481345858470    6.45814822929811   15.99387416291415
C        -3.48589627661923    5.86980072041595   16.53367079827034
H        -3.50128847393520    5.58055623570694   17.57505303228162
C        -4.57793913320569    5.67908379929376   15.73084318594942
H        -5.48234347606599    5.23542773183894   16.11712696157522
C        -4.50638460651081    6.04832603516718   14.37971731270646
H        -5.35502877393882    5.89726707333109   13.72471927583246
C        -2.35633760754698    6.79406659729852   14.61195810693459
C        -3.52558779445611    9.62227534702262   12.11315908147442
H        -2.47356317287028    9.60144384944649   12.36662170512969
C        -4.25927334809452   10.78925999314437   12.23686630327335
H        -3.78542885414323   11.69342289148695   12.58677629957754
C        -5.60960842787462   10.77868075514686   11.90689284983525
C        -6.45455122043366   12.00598461685211   12.00954754122393
H        -7.45233661871353   11.76087718577101   12.36653799920550
H        -6.55429478397161   12.46151885190421   11.02432557656364
H        -6.00390821937681   12.73537017158856   12.67734363712601
C        -6.14377213882570    9.57902345017249   11.45426730586080
H        -7.19189222135445    9.52509809437994   11.20574361561099
C        -5.33097243115977    8.45552871319342   11.33566053786418
C        -5.85406079516993    7.16397330667387   10.84516850317780
C        -7.00958798986280    7.08226052205207   10.07458331393143
H        -7.52196819226404    7.97758940390291    9.76182622491513
C        -7.47718543233900    5.84254211907392    9.65743859908814
C        -8.68502905194087    5.73093486015512    8.78672866590959
H        -9.43024689971856    6.47563699499193    9.05655791445739
H        -9.12550714788202    4.73975539230639    8.85602936411839
H        -8.39774206450750    5.90636067246765    7.75000728496923
C        -6.76425921410187    4.72147264401932   10.06680297129877
H        -7.09196821566972    3.73018065037713    9.79500716762910
C        -5.61248669340120    4.89021404975356   10.81495311332090
H        -5.03640432056500    4.03656906510257   11.14388029043592

