33
CSD_code = PODSAE | q = 0 | S = 0 | Stoichiometry = C10H8HgN10S4 | MND = 2
Hg        1.84929789794764    0.00054453292247   18.43906305426333
N         0.09187701183314    2.06914287582543   14.83057902153938
N         0.70544634497091    3.12194571788217   14.32642537321149
N         2.68874593258356    5.60981477434918   15.78005420385756
N         3.46198725616483    5.26942525913454   16.81928693218803
N         2.46118953493468    7.21678102868244   17.22764548634952
S        -0.06882216230148    0.32556439294255   16.82484172734240
S         1.96573815057777    2.64157284280161   16.49453180397472
C         0.58664639064700    1.66296846128675   15.94525966858484
C         1.69268404859495    3.55734489340688   15.01597246412447
C         2.54315881823896    4.72650323571583   14.65619625742941
H         3.53981361648746    4.37392595435834   14.36504677553671
H         2.08235264152376    5.25912299574920   13.82174691255897
C         3.30118328831853    6.25765441785460   17.66512532372758
H         3.79650011003019    6.29751001104625   18.61264204749373
C         2.08716922288313    6.78400519551455   16.04988488242966
H         1.41062592523151    7.27565709612990   15.38205089223319
N         3.60629213873323   -2.06924395560975   22.04821079835889
N         2.99269355870028   -3.12196150241304   22.55250629655794
N         1.00915147569039   -5.60980150621290   21.09910331879975
N         0.23590223225270   -5.26936955424323   20.05989048705342
N         1.23651106092724   -7.21682235666775   19.65153825697104
S         3.76674385759566   -0.32573151750344   20.05381216877857
S         1.73230051929428   -2.64172617471999   20.38442783084862
C         3.11152868892513   -1.66322046379350   20.93342330909713
C         2.00539462562409   -3.55740169309696   21.86301018734460
C         1.15487116531207   -4.72646530893744   22.22292949809243
H         0.15825716163077   -4.37379437814404   22.51410759593960
H         1.61569164782202   -5.25906914119653   23.05738230675601
C         0.39657384709001   -6.25763674677290   19.21407252772034
H        -0.09879592582285   -6.29746892604381   18.26658076192654
C         1.61062293830155   -6.78404314611962   20.82927170795535
H         2.28716697926164   -7.27572731413787   21.49708012094344

