84
CSD_code = PODTOT | q = 0 | S = 0 | Stoichiometry = C30H45ClHfN3PSi3 | MND = 5
Hf        6.29297831156533    3.86658733087520    6.34919352952996
Cl        7.11532093106298    4.53090909037859    4.26540121915966
P         6.14153736859790    3.14793488446183    8.87150838764325
Si        8.24760541930184    1.35735425380264    5.38630567524591
Si        6.95315929587902    7.00980568150373    7.02256964895858
Si        3.15408124147133    3.36144183301604    5.60716198928118
N         6.88653178564819    1.84785099123796    6.33388352392584
N         7.32496282921077    5.36723098767648    7.38541835453746
N         4.22932618525873    4.07262433479110    6.74412592976556
C         6.67214158221488    1.41677475379575    9.18769123851202
H         7.74526868369963    1.35146629621845    8.97848851706095
H         6.47537870178271    1.09774634278077   10.21497587240625
C         7.09282736461668    4.20061122427748   10.03944341154269
H         6.54243877354712    5.14233588635188   10.14260383732120
H         7.21007863595309    3.73360599432824   11.02136721055933
C         4.42436423483185    3.17677595641870    9.52071090579080
H         3.87780299005213    2.36680550285996    9.02558842085642
H         4.39589547782645    3.02750984026510   10.60421199897004
C         5.89277452670959    0.60047902872135    8.19370058287396
C         5.04242005658101   -0.40144879975568    8.63390924242375
H         4.94048270736165   -0.57223727937511    9.69728215098638
C         4.34703018888007   -1.20321611577468    7.74561839866260
H         3.69365555323282   -1.98078895750774    8.11027554229495
C         4.52148820173108   -1.00600622663939    6.38683819255601
H         4.00983485354517   -1.63913875129392    5.67687820752427
C         5.35297289532891   -0.00206582155987    5.93238506396641
H         5.49987908859333    0.13107217773757    4.87199676842180
C         6.03302086528848    0.85104252734323    6.81026044583772
C         9.58112066633181    2.66321119810510    5.77732856077063
H         9.17335577443614    3.66798367755927    5.69105849050959
H        10.41043206671024    2.58692730678644    5.08356778406501
H         9.98228247874197    2.55038639283682    6.78050375849027
C         8.85707093618958   -0.35218014097746    5.98668344801721
H         9.13974948673320   -0.33235260314624    7.03392654607094
H         9.71922515221220   -0.68008468969241    5.41780541121885
H         8.08049102343919   -1.10085236621289    5.87405976748042
C         7.99036470461594    1.20913299131623    3.48784588383968
H         7.31492307383336    0.39846935480084    3.22772838559038
H         8.93808814877293    1.00458478769080    2.99933285627920
H         7.59667480045029    2.12554630766320    3.05844524541410
C         8.42283371931943    4.44896749217104    9.38121718725814
C         9.59624765634669    4.11568540790152   10.03978852654215
H         9.53545547836462    3.65381573718123   11.01627822777784
C        10.83705186106768    4.38210498604771    9.48812674069643
H        11.73726807331921    4.11721190400548   10.02127622530236
C        10.90446743793800    5.00660770820817    8.25476713276810
H        11.86343950142878    5.24020571304208    7.81644793277052
C         9.74626264450838    5.33061160480883    7.57765482543862
H         9.80090708867586    5.81542003504133    6.61535846253933
C         8.47917334267992    5.04038043812276    8.09886554727151
C         8.37925825348690    8.13048262902225    6.40214067774489
H         9.17705933570003    8.19388239455932    7.13519987409390
H         8.01590216413330    9.13826940418586    6.22775460804017
H         8.80680219424107    7.77254861056890    5.47019185612853
C         6.24985659947837    7.86230748414181    8.59077434626744
H         5.36447700608056    7.35768648654833    8.96522282925906
H         5.97809003075551    8.89152153709716    8.38381859976587
H         6.98922535159293    7.87522006568072    9.38592606071553
C         5.62850750228171    6.97137386326719    5.64316920169115
H         6.07066619972381    7.15691014923540    4.66900223230392
H         4.88290263783145    7.74079956447950    5.81297373461737
H         5.12201910952567    6.00119151302647    5.60255517894214
C         3.84199396194323    4.50659229205872    9.13518151275917
C         3.37606611107080    5.36016246614480   10.12405636249473
H         3.47313916649247    5.06191590247570   11.15949598775004
C         2.77099631880304    6.56580204934216    9.81774283182629
H         2.41613701837842    7.21353508061532   10.60455403900226
C         2.61097129824176    6.91288567341649    8.48785100052054
H         2.11618464421867    7.83585309893388    8.22354057262907
C         3.08351586939808    6.08169435958260    7.49270993606592
H         2.94120393531609    6.35435551119214    6.46029728225868
C         3.74292352927321    4.87994725196360    7.77764305178611
C         4.33216548866491    2.79223512897569    4.21199079417609
H         4.54350459697166    3.59445652632524    3.50708943930631
H         3.88953252274442    1.97962263320551    3.64435488687554
H         5.28136240832356    2.43470173687641    4.62252893228285
C         2.20827317764044    1.88477702797482    6.38152590485374
H         2.88274544459660    1.13036784754609    6.77532078950034
H         1.56772186589870    1.40274704365612    5.65075892072120
H         1.57426848734060    2.22264162471088    7.19619595382554
C         1.81903951844118    4.48174333013736    4.80851730963805
H         1.13191625751565    4.86261552299161    5.55711751690189
H         1.23475945385003    3.91697102533858    4.08914094368958
H         2.24606867415944    5.33163695453195    4.28399561883938

