84
CSD_code = PODTIN | q = 0 | S = 0 | Stoichiometry = C30H45ClN3PSi3Zr | MND = 5
Zr        6.29087439647499    3.85824909716181    6.40109535336900
Cl        7.44156448315230    4.56708588351073    4.46216583968903
P         6.20706071583414    3.09705295744013    8.91020816682279
Si        8.24263494950948    1.32603026593190    5.49111404805144
Si        6.83178303682744    6.96851688197569    6.98182192866810
Si        3.24059769600817    3.42650699493108    5.57477160233629
N         6.86026749980637    1.83102052411090    6.39053023064316
N         7.21906509534044    5.37857594531964    7.51566971126605
N         4.21436446344003    3.99108637431105    6.86823575005289
C         6.71570150987164    1.35033900131196    9.21161302702454
H         7.78069984920558    1.26324970891793    8.96758582286414
H         6.54198555483732    1.02905477521782   10.24263512692182
C         7.18808357123403    4.12123408626284   10.08709482063399
H         6.62351853595805    5.04734527346070   10.24912656608015
H         7.36133777121407    3.61907225791829   11.04324577638952
C         4.50766449064717    3.11211319617306    9.61509171449959
H         3.95554318945835    2.29939778715040    9.12829345106951
H         4.51301166009061    2.95524427347474   10.69813736555485
C         5.88770861276986    0.56244752503383    8.23538286828084
C         5.03182686596891   -0.43433156587347    8.67424649653844
H         4.96227250907427   -0.63873841444220    9.73433384448355
C         4.29010804926579   -1.19207332013142    7.78350253615840
H         3.63515422814044   -1.96993124379414    8.14474443210319
C         4.41734683042866   -0.95177485059855    6.42622914076175
H         3.86476974605291   -1.55025805087939    5.71659892987399
C         5.25374662570569    0.04954945452595    5.97240113272915
H         5.36634358372098    0.21582771098925    4.91076191510889
C         5.98815220208629    0.85178298196027    6.85486135073085
C         9.64873639295718    2.49640255286427    6.04138945492442
H         9.54056060687203    3.47748427485126    5.58940342496948
H        10.61700368829066    2.10928274970032    5.74239668448002
H         9.66056830007183    2.62112065739187    7.12357887368538
C         8.72157000117654   -0.45768060483851    6.00328627795305
H         8.97071480491959   -0.51542097517669    7.05766615608064
H         9.57827259312342   -0.81175837092069    5.44171884480132
H         7.90152371334884   -1.14519656183589    5.82640520208199
C         8.05395047901368    1.29145050397297    3.57610117711267
H         7.35420425681270    0.52579402661765    3.25014251385395
H         9.00940567132548    1.07262684428601    3.10968184268825
H         7.71577429333297    2.24679130069160    3.18464225253821
C         8.47707902068017    4.42269135518612    9.37272535795898
C         9.69859275512620    4.10273653511397    9.94263416312581
H         9.71662939097115    3.61614648173398   10.90887332373905
C        10.89186034077211    4.41517814447260    9.31290434749262
H        11.83297675544028    4.16536014678765    9.77815556688463
C        10.86028372536591    5.05719911372749    8.08643270401829
H        11.78263963770725    5.31215620289904    7.58577222938939
C         9.65248536888003    5.36730149710993    7.49347276824704
H         9.62860982801707    5.85427249934612    6.53012252218100
C         8.43130150218556    5.05373340877006    8.10587852875707
C         8.20480360901372    8.10141024905449    6.25723278831359
H         9.01686725484576    8.23892764819204    6.96416142492568
H         7.80290979785704    9.08369339308983    6.02771452600470
H         8.62196014875603    7.69689702714723    5.33927611126297
C         6.08611647398029    7.92666919188390    8.46944367118778
H         5.26942413817196    7.37975940271795    8.92945545409707
H         5.70539900988733    8.89401576048089    8.16230794384650
H         6.84060254028064    8.09984231255178    9.23014343195242
C         5.51956917060193    6.77387932794626    5.59035476499961
H         5.96665993283554    6.92148922862535    4.60994409976722
H         4.72876933085049    7.50936174581295    5.70238856436123
H         5.07621434973171    5.77006541704411    5.61520141354295
C         3.89656627726127    4.43458052505396    9.25511200009027
C         3.45297184055646    5.28436278053435   10.25630017027572
H         3.59059960382933    4.99224794497172   11.28894111009745
C         2.81652907779797    6.47855716136001    9.96690983199411
H         2.47810443673016    7.12394744934832   10.76273658072794
C         2.60513191614671    6.81684337461333    8.64176508499078
H         2.08694066212480    7.73105425447356    8.39167079403655
C         3.05763524808171    5.99136576600914    7.63250416081956
H         2.87565153755040    6.26210080001414    6.60545042537816
C         3.74358708527571    4.79797556271511    7.89744793279000
C         4.55218216207654    2.99374625874449    4.23472981292192
H         4.83608948976804    3.86913668934241    3.64376038977342
H         4.16057923265111    2.25754807386907    3.53702495427478
H         5.45597848132970    2.56994124985539    4.69461395467081
C         2.20999896283123    1.89907378758127    6.10830411040645
H         2.82612128940604    1.14412277231545    6.58685696081427
H         1.71632497528084    1.43580875961064    5.26080921452739
H         1.43853462249678    2.19222223690550    6.81385857314728
C         1.98675199458560    4.60317652452800    4.70849285614071
H         1.21280146357698    4.92366208314328    5.39856049559350
H         1.49307553809708    4.09208211253939    3.88738951594527
H         2.45781749721847    5.49298583379562    4.29855371066200

