99
CSD_code = PODVAH | q = 0 | S = 0 | Stoichiometry = C37H53ClN3PSi3Ti | MND = 5
Ti        0.60612126627769    3.56603920728611   11.95719969626307
Cl       -0.38942871413373    5.46647463027799   12.47774164582979
P         2.10505196447704    1.40188240460159   11.42545323480415
Si       -0.11290764439763    4.56833563250611    9.02287005582826
Si       -1.78978751054497    2.19405175434214   13.62733230495557
Si        4.25193688772671    1.56773507821632    6.92679490958746
N         0.06617905106545    3.24901978220985   10.14282813436381
N        -0.09826725077757    2.43257880062752   13.30132263421128
N         4.35731305715946    1.06858279513022    8.59937858876985
H         4.22662948821070    1.80157178449920    9.27998414376840
C         1.45466272576741    0.77363889950345    9.81141038723236
H         1.84303805229225    1.42548983411288    9.02168336916464
H         1.79691106373689   -0.25041794102989    9.63499290403945
C         1.35351543356397    0.13726632485329   12.55316638416158
H         0.29726999900010    0.04633289725727   12.28054025201065
H         1.85107154614762   -0.83034774853268   12.44658242065733
C         3.88816329598005    0.78410824442782   11.44094312690575
H         4.54051498859754    1.63181534918022   11.20692227770825
H         4.07631066202310    0.50677595270783   12.48207519313224
C        -0.04005989846932    0.84510928265528    9.80410094911764
C        -0.67914369827542    2.09841154448070    9.91297311851795
C        -2.06206332112228    2.13482231927267    9.69270739213190
H        -2.56012759531708    3.09126024292697    9.67852517492842
C        -2.79370311577191    0.98339697516825    9.48030781126086
H        -3.86055453711768    1.05011651660208    9.32572599334141
C        -2.16489941287003   -0.24998213810969    9.45823311347363
H        -2.73232942953834   -1.15483781043701    9.30358070319879
C        -0.78913652006463   -0.30388890129731    9.60249874790251
H        -0.27969970892939   -1.25565944770973    9.53269560039985
C        -1.67618600396945    5.67774876435124    9.17729559832460
H        -2.55890076693310    5.21720265133919    8.74173927977509
H        -1.51676129958944    6.61827992825202    8.65811064424702
H        -1.89480283477616    5.91619105418364   10.21536220675204
C         1.40481454896601    5.71496980891461    9.20838314298370
H         1.25326510642875    6.40822864818232   10.03101091789457
H         1.53087653345337    6.30531045913414    8.30694786720524
H         2.33038220477720    5.17143510373603    9.37971629983344
C        -0.12752846837847    3.82178403558589    7.25557267362033
H         0.83767568580749    3.41245120441541    6.97541093172394
H        -0.38667133150230    4.57704807613231    6.52227259125590
H        -0.85798575423916    3.02232159126012    7.17910502602343
C         1.48699715786287    0.70010564800944   13.93471414144470
C         0.78102248547665    1.88247612445639   14.23405242857595
C         0.92559820843643    2.44106117534626   15.50510670683204
H         0.38933311603253    3.35274590461207   15.72790979258884
C         1.73179368883845    1.84565815456360   16.45543692271139
H         1.81749614065039    2.28752481212973   17.43663094114732
C         2.42024985941432    0.68253358290119   16.15648340479304
H         3.04578554177968    0.21187530042756   16.89972505180576
C         2.30346452023084    0.12557491745045   14.89418265499217
H         2.83741252043510   -0.78568551392188   14.65839945317145
C        -2.26198283500983    2.40867386036504   15.47418628718461
H        -1.68161269551124    1.74849006888534   16.11127732735998
H        -3.31061162802444    2.16990524099052   15.62094592296537
H        -2.10780371842639    3.42639983906520   15.82026747225064
C        -2.85468917684951    3.41689226412804   12.62069831250891
H        -3.11358952859085    4.28846574017179   13.21449642571173
H        -3.77918461020241    2.94211660691894   12.30885176941187
H        -2.33560073804646    3.76751838967006   11.73281029161256
C        -2.29293121207534    0.39268998255714   13.18020042573284
H        -2.15903589985094    0.17507137771711   12.12428734926084
H        -3.33911922511773    0.22690188000336   13.41491970459380
H        -1.71614049161914   -0.32954690895213   13.75139483966201
C         4.17361986887421   -0.37331999438357   10.53900098237719
C         4.40018404380985   -0.18762113700347    9.16134562636456
C         4.66876632061311   -1.30485398170151    8.37189469412170
H         4.85742177171721   -1.15988127921878    7.32141108551224
C         4.69781493712968   -2.57407267798264    8.91283815049190
H         4.90381335110073   -3.42179568125747    8.27639910390181
C         4.47127473728753   -2.75897154475466   10.26600666862418
H         4.49925550869034   -3.74759642376405   10.69748901101943
C         4.21719264872783   -1.65790352587569   11.06319894899153
H         4.06250737464014   -1.79564110730661   12.12428412876813
C         4.01380339614200    3.44764904655448    7.07798697692725
H         3.16256109812552    3.69828417994837    7.70450839668202
H         3.84134696213658    3.89375684163736    6.10479037533138
H         4.89039162890828    3.92803592693448    7.50180424060119
C         2.75024492215933    0.75128340707640    6.07797940840142
H         2.74647496480590   -0.32471818008514    6.22358111116681
H         2.75470264503303    0.93594648173614    5.00808242642049
H         1.81070130598481    1.13172517318415    6.46945226838410
C         5.86075543580906    1.18066865008351    5.97591356049923
H         6.73435518687929    1.31777870189330    6.60662240320792
H         5.96971717489694    1.83801600811599    5.11842727944633
H         5.88540670421535    0.16106331656942    5.60310727243195
C         2.49032877980063    4.50911363712067   12.13800834183189
H         3.25809411329173    4.07300991599245   11.48126951015202
H         2.34086582484609    5.56324019449158   11.87725978304415
C         2.87246909286298    4.39065511438210   13.54909322586536
C         2.35736785993820    5.27397865371669   14.51152663801290
H         1.64743310919526    6.03422647994556   14.20591072559191
C         2.76786618642078    5.21176885088344   15.82781959638605
H         2.36860103857846    5.91381702256546   16.54635753564105
C         3.70210674779682    4.27021388522886   16.23136910600313
H         4.03538778539962    4.23684103285122   17.25784975007835
C         4.21198386528804    3.37997559580652   15.30160452181416
H         4.94499211332553    2.64513369791483   15.60307778721268
C         3.80452583677053    3.43914320082828   13.98375880592164
H         4.24525543329064    2.76454847960165   13.26129548031814

