64
CSD_code = PODVEK | q = 0 | S = 0 | Stoichiometry = C31H23N5NiO4 | MND = 6
Ni       14.33172788238460    1.72909668772686   14.29935776696171
C        13.58026349019929    3.40321205266454   10.56905156347067
C        13.55306349327494    4.77904106780576   10.44501216002915
H        13.55933065197276    5.41105718155038   11.32024065658212
C        13.51949119531544    5.31926292078230    9.16435782835053
H        13.49685902446141    6.39206613580906    9.04070216631087
C        13.51564004579475    4.50223964777850    8.04469420723914
H        13.48745695948716    4.94805982110175    7.06146362144988
C        13.54818270663577    3.11631807774832    8.16937275714443
H        13.54763158642640    2.47339292258284    7.30268862302631
C        13.57807934360184    2.57494087438713    9.43706006668940
C        13.62823039839341    1.14052766021456    9.85750940938130
C        13.66259234259060    1.19151623105166   11.32327458743889
C        13.66497186616370    2.56463264453109   11.77438578556365
C        13.50106051976865   -1.07709423712870   13.99491578652590
C        14.29153909579777   -1.46318057281818   15.14698378292922
C        14.24134137956634   -2.80906253162557   15.53446270128435
H        13.57425526109171   -3.45785055277529   14.98579738125887
C        15.02183511942648   -3.28793425276115   16.55558737328067
H        14.97757507883541   -4.32773464923905   16.84099523362973
C        15.88781938810313   -2.41431018297139   17.21805225026220
H        16.51556726053724   -2.78767004178434   18.01540281691478
C        15.94737332251443   -1.09020550882978   16.87428164363539
H        16.60263953421356   -0.40609575664279   17.39324362047336
C        15.12844713160464   -0.55248086095136   15.84767220452106
C        12.15671014036701    0.80445722828987   16.40164919667244
H        12.90859075114485    1.09750637583051   17.12343731738907
C        11.31407145751182   -0.26623118435698   16.64835452203422
H        11.40840614733246   -0.83067009424214   17.56293199530197
C        10.36897511648763   -0.60317942604230   15.69310390329881
H         9.71095149740273   -1.44648437125655   15.83883084148744
C        10.28669015048917    0.16807588665128   14.54552181255809
H         9.56103557980825   -0.04935636770642   13.77815910292543
C        11.17644568850195    1.21666417030709   14.38887600099342
H        11.13986224788911    1.84088689836013   13.50342252822835
C        13.89628668285092    4.18112276390326   15.78831991539439
H        12.88448045499151    3.98303137448345   15.45940769084521
C        14.18504432455145    5.25820811829630   16.61100463341988
H        13.39553516603969    5.91747448509931   16.93684353815869
C        15.49690310459075    5.46656461089780   17.00508488979489
H        15.75657004358407    6.29588021051153   17.64668423839915
C        16.46653643742806    4.58391633539684   16.55767897735119
H        17.50097510638051    4.70662592808932   16.83849660250683
C        16.08849915568215    3.53053078241412   15.74043146055797
H        16.81100380948554    2.81274907372874   15.37595035386270
C        16.57304720354257    2.73425006117702   12.15722987276784
H        16.37427328487510    3.72770245271404   12.54132080977687
C        16.93563966666097    2.54921586053904   10.83299859042162
H        17.01302433605920    3.39440414280836   10.16598134398515
C        17.18138273850940    1.26008316072868   10.38718423142765
H        17.44220385052743    1.07203537582632    9.35648170750871
C        17.09280367826078    0.21961155038843   11.29764195500437
H        17.29162614906744   -0.79775265398764   11.00125646796612
C        16.72582343586781    0.50752777296448   12.60268469694774
H        16.65503916430456   -0.27820414493854   13.34489864450610
N        13.62269753799562    0.15361693376279   12.11448518585308
N        13.84240735952575    0.16458402316110   13.36184637289971
N        12.11696273904437    1.52416982827268   15.28151045297856
N        14.82935851598498    3.33605785920571   15.36342481135288
N        16.43656860676736    1.73596024086748   13.02681853664950
O        13.69101021472429    2.94886548090272   12.95101160402147
O        13.67403123040609    0.17970591806808    9.12395659023531
O        12.61122752059746   -1.75029308578454   13.51084186041219
O        15.14172562660383    0.71644164646322   15.64767074975209

