34
CSD_code = PODVUA | q = 0 | S = 0 | Stoichiometry = C11H17Br2N3Zn | MND = 5
Zn       -0.72558344191258    3.66933227759826   12.55226395928752
Br       -2.70934303013542    4.22043447594791   13.71691441587430
Br        0.34388056509940    3.35089354430628   10.43154039038952
N        -0.86340540278217    1.41511978477586   12.85881680487575
N         0.83466911279187    3.15391038597859   13.95425381485864
N         0.38580614817832    5.68810921947451   12.99938110117692
C         0.20394062336901    0.93705585611080   13.50582465894887
C         0.44599131777498   -0.42896421703594   13.62315355498545
H         1.32143189574583   -0.78063036402200   14.14709503503111
C        -0.45466054534687   -1.31509667744863   13.05490217500666
H        -0.29389543388921   -2.38014233290163   13.12729718466213
C        -1.56195861464505   -0.80862997504627   12.39421412310814
H        -2.28916792950263   -1.46179524149327   11.93985351342598
C        -1.72073582529670    0.56959879320434   12.32184068341325
H        -2.56925720171086    1.00808992218140   11.81372224104971
C         1.10446199656291    1.92659874578809   14.07812841859474
H         1.99269044078630    1.56381132203609   14.60222454124141
C         1.65432984760372    4.20009764173232   14.46941500365516
H         2.65794789813502    3.85311533616187   14.74803641745980
H         1.15246549549220    4.59042415685786   15.36347835453431
C         1.73009114563761    5.31272730615099   13.41947951527602
H         2.29209097620135    6.16405512726465   13.83042203227980
H         2.26305748058766    4.94055935590395   12.53902005614125
C         0.40062889434093    6.69905906146076   11.93958277521572
H         0.91097677759689    6.27087333372165   11.07236918745614
H         0.96378375288802    7.58835980997194   12.26220451317131
C        -1.01644862804176    7.10231872747524   11.54799593727353
H        -1.55365548568813    6.22040482454857   11.18895766534351
H        -1.54750205103944    7.48007018312669   12.42532112713072
C        -1.00612187893816    8.16090154730924   10.45411881281678
H        -0.48809009365689    9.05653252070993   10.79141492553987
H        -2.02292355925116    8.43274485247519   10.18409312500676
H        -0.50233518280036    7.78423004085389    9.56708035734544
H        -0.10756006416532    6.08733065477601   13.79998357844481

