60
CSD_code = PODZUE | q = 0 | S = 0 | Stoichiometry = C18H31Cl2N7NiO | MND = 6
C         1.42567317000283   16.14233437093100    4.74765430911020
H         1.53588261487546   15.25071052274309    5.36668359208394
H         1.33991423445666   16.98795014049691    5.43644855799598
C         2.67563054991478   16.36305370204102    3.89664850300890
H         3.55466573060942   16.34783017762921    4.55927153523585
H         2.61272655018056   17.34982294139808    3.43364115528225
C         3.01260879961805   14.01641875631243    3.31877167911227
H         2.90035479226265   14.00693393090362    4.40463583561144
H         4.03138750321822   13.67789459097870    3.10177276165186
C         2.06119819695859   12.98896930271765    2.68793247735141
H         2.33625566791132   12.86254737836237    1.63806087420985
H         2.21288270295966   12.02660551472943    3.20273188087220
C         0.08304355249836   13.50473096997207    4.04652956504262
H         0.85646643858934   13.33438123053245    4.79886406748111
H        -0.68188295408994   12.73437426497379    4.20482056243697
C        -0.60221252098884   14.86293051267713    4.28555487138978
H        -0.88665112278732   14.91018173000168    5.34768552881112
H        -1.50279812356209   14.90695530266070    3.66751301820159
C        -0.55890810475057   17.25590410281463    3.92308431539452
H        -1.22791915484181   17.24416620785296    3.05764562056952
H         0.14184865018022   18.08301503858365    3.79433999661638
C        -1.45087153600339   17.51277620017563    5.16205411974434
H        -1.82150424039836   18.53920238363291    5.09020486381022
H        -2.31653864603905   16.84407242136357    5.14722259456818
C        -0.80857699707463   17.36382309896117    6.43917267799519
C         3.83494829713075   15.77117308242961    1.86391069166717
H         3.50297861047293   16.67738530154233    1.35300263854231
H         3.90760237124967   14.98138268812247    1.11413371215046
C         5.23817363675451   16.02773194318087    2.46355976035162
H         5.47439400331453   15.31873796672551    3.26149122200798
H         5.98149456107438   15.90687869059317    1.67103222075909
C         5.35688011071022   17.36863488198726    2.97056424974330
C        -0.15938472791970   12.69128406263004    1.76038532544191
H         0.23971734001571   12.87006515854283    0.75826938080808
H        -1.16137735964351   13.12419420058232    1.79728593961948
C        -0.28227641239647   11.16476268866472    1.98816756057402
H        -0.52571496488246   10.94122519348380    3.03138542443515
H        -1.09662739654407   10.79319650924824    1.36081633903683
C         0.90601601975170   10.43635141799499    1.63480331909023
C         1.03343540182727   18.43099769252970    0.44782076623392
H        -0.00121857161076   18.34124692168322    0.08574437905660
C         3.22413299212875   19.31377014274804   -0.06402367789565
H         3.38786119862436   19.08351816503205    0.98725005903706
H         3.49321594102065   20.35470587211299   -0.24689933932705
H         3.85684827416908   18.66980482413552   -0.67979288269619
C         1.39527212282349   19.55275110614048   -1.67452722271126
H         0.34044875306718   19.32456193125781   -1.81065464131544
H         1.96694754740846   19.04663506222832   -2.45644008802043
H         1.54584144977821   20.63080179958306   -1.77248406109263
Cl        1.53334585448719   15.17562096624196   -0.03011372091429
Cl       -1.07282513980785   15.83891656810499    1.13036671046054
N         0.22294571885679   16.01696354617404    3.91038523657537
N         2.79425782840033   15.38102377598514    2.81416586585204
N         0.66838195637357   13.41793117292961    2.71189764318247
N        -0.32920291463390   17.22758594922490    7.46992539973825
N         5.43369753828732   18.44743595899860    3.34295813517111
N         1.84517374105663    9.84374508635138    1.35914148377145
N         1.82927514592052   19.10713305309070   -0.37687834012532
Ni        0.87364197462668   15.69001611081347    1.88616931512068
O         1.38422334440353   17.96424571546714    1.52583623208191

