41
CSD_code = PODZUG | q = 0 | S = 0 | Stoichiometry = C16H15BrMoN2O6 | MND = 6
Mo        4.00294206530783    8.98200629667210    2.02536388878021
N         5.44689810956943   10.54845628624319    1.53469126091014
N         6.74157809035410   10.15222859361801    1.64575612942385
O         2.91045936492337   10.23289566830607    1.27630111469698
O         5.74679456476309    8.14439935948329    1.96976015205804
O         0.48197700174746   11.21724233837489    1.20293639903462
O         3.97435835726745    9.35054317145203    3.63164717184215
O         3.23167571140775    7.59950424093210    1.58908469555127
O         4.76806289807789    8.86442521551725   -0.61134108624666
Br       12.21786720514291    6.16978429350237    2.87751106790247
C         3.92291607719399   12.38269776444235    1.30409538596175
C         2.79019277552357   11.54056308703548    1.26587632143985
C         1.49186746614729   12.11978346853249    1.21391694192250
C         1.35871205488232   13.49552125760232    1.18535681009737
H         0.38201249439884   13.95118331358407    1.15128968669427
C         2.48787441008035   14.31721369025239    1.20061966855512
H         2.35539476773025   15.38753646142870    1.17291266971331
C         3.74711936834572   13.77940610689997    1.25810169762278
H         4.61770228551588   14.41658233628328    1.28215416308409
C         5.22972019473790   11.81714318361013    1.40625263518488
H         6.08915166984180   12.48898508019540    1.40435414727117
C         6.80977089924236    8.87664710533909    1.90697520070009
C         8.12003718509747    8.24917319190230    2.13036534698496
C         9.30440716710844    8.97425562703926    2.00336958385956
H         9.25280855790157   10.01634046323259    1.73344028240964
C        10.52002645661073    8.35796782789689    2.22386257320887
H        11.44330837196040    8.90859886742646    2.12799005691084
C        10.54529315198586    7.01630397490907    2.57586796494059
C         9.37803928232294    6.28069294922229    2.71212452488118
H         9.42163936330324    5.23918592165866    2.99136588639606
C         8.16513394644190    6.90097000404342    2.48759212702623
H         7.23542132436863    6.35857329533975    2.58971414371631
C        -0.84320332474880   11.69015380990302    1.24720753476122
H        -1.02373533362203   12.29146836873301    2.14367760084345
H        -1.46927278773766   10.80042134214854    1.27722742741680
H        -1.09001646942987   12.27809662378491    0.35681748327415
C         4.57845326511431    7.55324721135188   -1.12914584970705
H         5.54255508305041    7.07800321643433   -1.33855212938557
H         3.97264425103994    7.57915630436801   -2.03912956226573
H         4.05031030306608    7.00199292245914   -0.35013421871159
H         5.16970237397345    9.40974975882946   -1.29967689875790

