53
CSD_code = POFBAO | q = 0 | S = 0 | Stoichiometry = C22H26N2NiO2 | MND = 4
Ni        6.12363489212211    1.63482077122846    5.81820472796713
O         5.39531216478736    3.29827300706825    6.04524695906401
O         5.94178935531454    1.90266317127893    4.01665492078646
N         6.27541029564854    1.38270569192306    7.66898515920770
N         6.88767678985918   -0.05523213337560    5.55067237113086
C         5.38042918249301    4.03324494804850    7.09612012992427
C         5.05845975662557    5.40564670378129    6.94267684850313
H         4.86498997171076    5.74065461152340    5.93465515613761
C         4.99877090828656    6.27974160392805    7.99478050872611
C         5.27831773337090    5.81275033009182    9.29905877348506
C         5.56669186267541    4.48458298238106    9.48115260870991
H         5.80812212486804    4.15711566077638   10.48176978175942
C         5.61505677212072    3.55593103520610    8.42270180687860
C         5.90697887226703    2.16939048265327    8.64349237771831
C         6.62369997682588    0.00033631841434    7.96495257296652
H         5.70552700603418   -0.59076552086108    8.08931394625153
H         7.21597346374926   -0.07544103903228    8.88421569954396
C         7.43442675570226   -0.56715811958034    6.79920630806285
H         8.48204672785406   -0.24999838171301    6.89825789100339
H         7.39533015063191   -1.66206047378087    6.83443711330187
C         7.17287178006830   -0.66587016931865    4.43265600770363
C         6.61186351819671   -0.24667506345386    3.18123358872437
C         6.61469024772723   -1.08215441646705    2.04680502631908
H         7.00087474912457   -2.08725764423714    2.13286994221941
C         5.54631395817348    0.59357997808291    0.70337794412931
C         5.50994909593281    1.42108735033438    1.79356188461551
H         5.08027494612345    2.40909321790992    1.72285647298727
C         6.01274485774937    1.04569664233063    3.06515967029516
C         4.65551384396735    7.71918203119469    7.76630466715288
H         4.46916718666184    7.90582856144229    6.71229944072726
H         5.46959146667067    8.36391722233423    8.09596458204206
H         3.76580797619316    7.99403882503057    8.33196113861597
C         5.26414209480367    6.75805485055957   10.46338393522067
H         5.50522435529269    6.23587372012692   11.38625159010720
H         4.28258984945791    7.21827416577628   10.57485668840845
H         5.99060772832713    7.55776368132670   10.32092949721538
C         5.76831161897434    1.62096934510745   10.04062285398225
H         5.31624686282956    0.63140966609817   10.01605164156032
H         5.13438397295210    2.26051570560536   10.64434387075734
H         6.74426012609208    1.54169283247088   10.52071512961116
C         8.12343920948985   -1.83564544713182    4.43617316649428
H         8.95377615831701   -1.64700251386609    5.11379053448579
H         8.53377679231789   -2.00131523791939    3.44643374412222
H         7.61399708867787   -2.74368867611740    4.76048176110397
C         6.10816470698769   -1.64436265726050   -0.33066805294017
H         6.55976081464547   -2.59396840677060   -0.05356674041289
H         6.67432603805599   -1.22360816434938   -1.16139867479645
H         5.09496141154013   -1.83539467901527   -0.68350324228367
C         4.99596144864871    1.04852229970935   -0.61274762742823
H         4.61589538206388    2.06368292515533   -0.53863728859120
H         4.18562695395749    0.39549945553549   -0.93523856135601
H         5.76894711684540    1.02048977048035   -1.38008959728569
C         6.09659188018770   -0.70143082066413    0.83560934536409

