81
CSD_code = POFDAR | q = 0 | S = 0 | Stoichiometry = C30H39N9O2Pd | MND = 4
C        -4.84193916182817    3.13329038849548    9.70369621764753
C        -5.90541037941424    3.74405302594802    9.05141870427301
C        -5.38068573923097    4.27817994261047    7.84657774172820
C        -4.03915787486735    3.92937304957504    7.82116343851873
C        -2.90967666792874    4.17872449947042    6.86771337367407
H        -2.46287071707132    3.21597924559804    6.57095845824441
H        -3.24336465749063    4.72128185268903    5.98315204517652
C        -0.55726899240832    5.49656009359438    9.15451257944435
C         0.18854911905310    5.38270192020499   10.43468206673693
H        -0.46934362324799    4.98121141144432   11.20802909699691
H         0.55897588090089    6.35691810622684   10.74255293891698
H         1.03104984162962    4.70027920396799   10.32147376066346
C        -0.59883629540114    6.57151843742132    8.26064618938560
H        -0.07095616203137    7.49902144538687    8.34570856092916
C        -1.46924135127723    6.19740310717801    7.25306085695643
C        -1.89718135519823    6.93080258677158    6.03558867978142
H        -2.98277708856978    6.96688684018075    5.95692714930220
H        -1.51552620714460    6.44006193718298    5.14033156969223
H        -1.50868846933743    7.94469625453563    6.06738765701807
C        -6.10700974783099    5.10767544317055    6.83066335705855
H        -7.18313647415739    5.08269933292673    7.02013759381762
H        -5.77100029440089    6.14903674310881    6.88479740984377
C        -4.89946129298541    4.62240136013726    3.57835344714311
C        -3.98816346001363    5.02849014240862    2.47416120552435
H        -3.49728092089968    5.96362028170070    2.72998805394619
H        -4.54801723031133    5.16014295900340    1.54976056518142
H        -3.23089684788543    4.26297640579598    2.30440387230791
C        -5.80283867443098    3.54849760889128    3.60827938593562
H        -5.99598879467384    2.84047851181019    2.82808869014240
C        -6.39142679737976    3.60272151805722    4.85553073736526
C        -7.41101140440780    2.73786869916030    5.49979567150521
H        -8.29059260935166    3.31975557187129    5.77611383382370
H        -7.00402866099100    2.28775336183087    6.40547070002659
H        -7.71240289974043    1.94922125674136    4.81611540084648
C        -7.31873227691165    3.87186320882997    9.52651561137331
H        -8.01275411932709    3.38102730436034    8.83649675197858
H        -7.42478013979711    3.41215069594650   10.51551665397519
C        -8.85039774417437    6.97616333361512    9.02242517496054
C        -9.84599544068804    7.80838645961884    8.29505232874000
H       -10.40783282586741    7.18411994986411    7.60599233846595
H        -9.34457296960215    8.59663613791874    7.73442163343571
H       -10.53485222871465    8.27712028526898    8.99658387219665
C        -7.95237462757971    7.37625807465468   10.02621616533423
H        -7.83711625586799    8.35720740218438   10.44084319510073
C        -7.25108388091699    6.23794399572434   10.36541209888914
C        -6.16649895993948    6.02025284679324   11.35539533107460
H        -5.25419011698433    5.69091639295169   10.85832726210747
H        -6.45000219993991    5.25482260643861   12.07796334438247
H        -5.96559257869052    6.94567194374809   11.88761149708843
C        -4.67801146165281    2.44402251582928   11.03088581972219
H        -3.99786295584282    3.03627554240596   11.66853675759736
H        -5.63020638949542    2.30165368316236   11.53975024745738
C        -4.51603837255351   -0.08096718469918   11.10817323217509
C        -5.82441516041355   -0.33071313217644   11.76561194677734
H        -5.85652961472509    0.12807254801677   12.75345239096881
H        -5.97469354559313   -1.40058734974169   11.87660707265444
H        -6.64128743251765    0.07494080321101   11.16902819572392
C        -3.56052700811357   -0.97777259983062   10.66639160018082
H        -3.60218743194035   -2.04575885211203   10.72831057607594
C        -2.53342420835470   -0.20297073333799   10.11346960092802
C        -1.27346168616816   -0.62111202597697    9.44268376016395
H        -0.80146577325927    0.25909094265655    8.99233747318927
H        -1.47953201197068   -1.36162235782867    8.67176495925816
H        -0.58206665311033   -1.05792171758859   10.16211609225175
C        -0.36218986245551    2.33827839477556   11.65183155144870
C         0.70935173867902    1.82819213712897   12.60573008363048
H         1.56565111244634    1.46375439607493   12.04597479541144
H         0.29447356006855    1.02571146323397   13.21119346952762
H         1.01188083348925    2.63300805279568   13.27096917139311
N        -3.73745547038891    3.24241075131026    8.93837358282870
N        -4.05002675300292    1.15145044998684   10.82754384932121
N        -2.85470829414003    1.07793467843463   10.23470509255231
N        -1.34224232251209    4.52291322142829    8.70039647225033
N        -1.89369130210699    4.95608378428464    7.55201108434476
N        -5.84683983726296    4.66347527119121    5.48623772504343
N        -4.93773273637337    5.28156894037738    4.72764443303407
N        -7.74379037029278    5.24751355221433    9.58935054710017
N        -8.70455622618668    5.68521987841349    8.77148308122577
O        -0.13205715602645    2.21446118317581   10.41279472196439
O        -1.39606611280472    2.85890795147126   12.10331844691471
Pd       -1.96100872008233    2.77216262869005    9.57800789821031

