41
CSD_code = POFFOG | q = 0 | S = 0 | Stoichiometry = C20H14N2NiO4 | MND = 4
Ni       -1.31073769277425    4.36245305980357    6.65018186853494
O        -1.00285723248962    5.70603180689016    7.88020328955991
O        -0.00474377883914    7.95340181045181   11.89835947899047
N        -0.99814725771763    3.01302967321779    7.89596304642582
C        -0.69356887553511    5.63851978483393    9.11503071215779
C        -0.51442726529238    6.83538843723901    9.85161506358969
H        -0.65324575301847    7.76819391412478    9.32310287739027
C        -0.17848512688143    6.81883071845957   11.18174939731463
C         0.00083755012182    5.59390796482391   11.86319680352153
H         0.26481731842328    5.62198926730873   12.90728980414609
C        -0.16333529532638    4.42340088497141   11.18842321516777
H        -0.02799619587147    3.48238844698395   11.70243219695607
C        -0.51019883339615    4.39803726361948    9.81820184095177
C        -0.67377433824276    3.17091466389580    9.15708844503034
H        -0.51158161643735    2.28893496798974    9.77250697755349
C        -1.14014609769411    1.73889178777450    7.33649440590228
C        -0.97848121052097    0.52328261153863    8.00098198378324
H        -0.72213080148245    0.48677490961286    9.04781649469363
C        -1.14584037991201   -0.66831801270870    7.32333053767595
H        -1.01806227745979   -1.60242857235986    7.84867083996209
H        -0.15452697031833    8.72487158789739   11.33712247094719
O        -1.61861272126142    5.70603191051989    5.42015715797780
O        -2.61669761401468    7.95339643697183    1.40199060775394
N        -1.62333458481086    3.01302979167822    5.40440334893395
C        -1.92790425862840    5.63851861174234    4.18533058998888
C        -2.10702730036608    6.83538617562974    3.44874005454573
H        -1.96818874867285    7.76819216236412    3.97724609981297
C        -2.44297643779637    6.81882666241300    2.11860745772760
C        -2.62232646761441    5.59390316109677    1.43716850169798
H        -2.88631107800713    5.62198321617678    0.39307669325774
C        -2.45817292839473    4.42339706718786    2.11194861529574
H        -2.59353413221898    3.48238447792467    1.59794584189170
C        -2.11130016078395    4.39803541428782    3.48216747312185
C        -1.94773133313120    3.17091347025757    4.14328402109483
H        -2.10994610664007    2.28893359299649    3.52787153293977
C        -1.48132163014798    1.73889189798535    5.96386882257786
C        -1.64296314664589    0.52328299531407    5.29937525226090
H        -1.89930629641413    0.48677500484610    4.25253902319040
C        -1.47558271005476   -0.66831778422739    5.97702132769725
H        -1.60334058695448   -1.60242797488192    5.45167552430194
H        -2.46688962678026    8.72486673334912    1.96322030367440

