37
CSD_code = POFFOF | q = 1 | S = 0 | Stoichiometry = C10H20CoN2O4(1+) | MND = 6
Co       12.45338047198078    7.88276045904848    4.70257279380101
O        11.79350567168558    6.16082505585734    4.81464183335493
O        11.43086765724114    8.32788134487616    3.20395072141984
O        11.05106178945796    8.41882833095376    5.77900393073067
O        13.59260640840915    7.50389763294734    6.13411421248730
N        13.14582996724806    9.80171020136056    4.67073296734242
N        13.94429935596929    7.22003177395242    3.47681418113796
C        10.27799278817694    4.36501051636123    4.63278144373791
C        10.74631773251238    5.73749560590680    4.22950621838367
C        10.03682879352611    6.42386696597930    3.25034224239845
C        10.42776722240064    7.67941114024847    2.78203888425418
C         9.62519467110024    8.30924425136820    1.67708463733818
C         9.62839725696496    8.52803829603649    7.65426117451969
C        10.95220711467173    8.18485915645461    7.02552496751514
C        11.96137734130697    7.67038482292794    7.83180365242877
C        13.23297575177580    7.36883203819314    7.34116708808155
C        14.27139349067498    6.87296141826212    8.30942566175294
H        14.10043527187235    9.93955710185952    4.99494634911640
H        12.53771882339153   10.36384443410569    5.26411519810938
H        13.06520314017474   10.18581271189072    3.73177663717433
H        14.00482804350746    7.66534363796177    2.56393341188512
H        13.80229952250430    6.22325946016878    3.32168415572887
H        14.84492386064317    7.31260283816972    3.94151023056780
H        10.23577778349121    3.71316229799105    3.76346653859043
H         9.27671790497261    4.43106690220449    5.05255819952615
H        10.95273986141813    3.94488614775811    5.37322219788308
H         9.15886690130033    5.96443829650478    2.82985584787540
H         9.53722936733212    7.62548273197870    0.83665134873892
H        10.09343509206586    9.23362719081761    1.35169217349305
H         8.62250016064005    8.52546431502553    2.03939834796560
H         9.77361788529817    9.21003462130079    8.48849634080763
H         9.16342277409513    7.62207540569227    8.03725379669257
H         8.97374207380216    8.98332987342655    6.91644939629311
H        11.75715412660382    7.50849507115601    8.87619898201534
H        14.36784642893989    7.56073172614052    9.14566070473375
H        15.22987375821084    6.76461119860643    7.81023425390282
H        13.96326373463382    5.90713502650655    8.70392927821740

