92
CSD_code = POFGIC | q = 0 | S = 0 | Stoichiometry = C32H51N4PSi3Zr | MND = 5
Zr        3.29236834581937    1.64236768560198    4.39883002531365
P         3.03028753569700    2.00157211153269    1.78623686616343
Si        0.77762059808293   -0.59693104776262    4.30313511871898
Si        2.56704343742446    4.92291201144413    4.75601567732120
Si        6.10626138041445   -0.01496833437580    4.37614772462930
N         1.29681685515755    0.99692129592518    3.95664116497077
N         3.58021720641026    3.75921380120339    4.01414642728570
N         4.67032813932413    0.21742019613461    3.46292455583229
N         3.52039355549610    1.63764386585770    6.42130578687587
C         1.35767679867443    1.61524753366811    1.11330237039628
H         1.23028871786453    1.98454652279330    0.09098951767677
H         1.24944507880799    0.52576245529860    1.12614894434903
C         3.34477620888079    3.69559245853745    1.12904864822607
H         3.45793117752183    3.70155860302188    0.04074148805790
H         2.49045890534607    4.31814835542176    1.41344577795162
C         4.12315877702399    0.95742214867752    0.73467818610682
H         3.88124900421270    1.04268269884187   -0.32919489485796
H         5.15290093108822    1.29448350204775    0.90706115541314
C         0.36714431487481    2.24361618686898    2.05068880090130
C         0.37266285627780    1.89539668200514    3.42022289052505
C        -0.64275847256687    2.43028486554581    4.22292786657771
H        -0.69408804486954    2.11465545149698    5.25454276234054
C        -1.57257732995041    3.32252088163678    3.72780777595456
H        -2.33715294255450    3.71884412971738    4.38025398975618
C        -1.53075376787706    3.70249890806792    2.39783028154369
H        -2.24841435339798    4.40510200143155    2.00253530573869
C        -0.56677288420838    3.14962428367851    1.57204738568885
H        -0.55116474854518    3.41425058886067    0.52286419341585
C         4.58810308233757    4.18383009287375    1.81458564471168
C         4.63556966844018    4.21798293696947    3.22658243944613
C         5.77461426192251    4.78405415947483    3.81597325452130
H         5.79971047975641    4.87891163173521    4.89256510998075
C         6.84607487071570    5.22105693702300    3.06312464939931
H         7.70985275655667    5.64370046114881    3.55557062055588
C         6.81222681002735    5.12098138191415    1.68338127123150
H         7.64883781154859    5.45176346828260    1.08697782775781
C         5.67781540981882    4.61291435289629    1.07406410966250
H         5.62919194092326    4.56717600106719   -0.00595237296617
C         3.95677851850059   -0.45135518200426    1.22595026977855
C         4.26550925902143   -0.76553125071005    2.57076041476235
C         4.24917462901581   -2.12386430678311    2.91894853284597
H         4.57272976406602   -2.39837312967138    3.91131307500295
C         3.85266396850023   -3.10550293567970    2.03409072792835
H         3.84588837943970   -4.13933090218247    2.34901006394365
C         3.47096975713123   -2.77085970683781    0.74645600661436
H         3.14755937504959   -3.52999734910020    0.05086502688915
C         3.54517091764143   -1.44538719904137    0.35329597514901
H         3.30122270400373   -1.17954569573320   -0.66698586656761
C         0.39664197549248   -1.63826608325727    2.73118595590856
H        -0.38339662472502   -1.17450796479135    2.13367848316027
H         0.05146751861946   -2.63284158731201    2.99499510277051
H         1.27669166228511   -1.75642154090460    2.10532081824452
C        -0.82085721277350   -0.73701388770795    5.36961986089032
H        -0.72392162910271   -0.24740568865519    6.33486816312517
H        -1.07139256131590   -1.77639433464460    5.55645908353379
H        -1.66480048862207   -0.28642895640038    4.85691051971246
C         2.20753654287166   -1.42091421791782    5.26906490154808
H         3.09639973503863   -0.77967931973779    5.25612131216943
H         2.45529351723806   -2.37241247823507    4.81360613871764
H         1.93900164179396   -1.62768888767613    6.30015387110893
C         3.47359026776372    6.33503301304552    5.70033936575865
H         4.08231358896990    5.95955611395160    6.51782589336677
H         2.76228332690583    7.03905232329654    6.12029563902445
H         4.12477167229573    6.88996347703169    5.03214818460761
C         1.42340752470775    5.83806550676412    3.50625933661889
H         2.00395756566574    6.37202442378642    2.75916742283998
H         0.80028106221973    6.56917876263458    4.01113506763787
H         0.76057579909586    5.14779680239373    2.99168766686973
C         1.47013382576819    3.98104175558987    6.00028942329025
H         1.49145091681646    2.91106220148045    5.77637515175821
H         0.44579355917381    4.33216392606783    5.94533816539936
H         1.80690347033551    4.13064647654595    7.02091729159045
C         6.76361053139881    1.76559670117691    4.59616513552515
H         7.47525566676662    2.03632128963930    3.82230946493978
H         7.25589727299976    1.90597314881902    5.55185723742085
H         5.92090656815090    2.45476719754729    4.52663699436022
C         7.42722817861563   -1.03782822373377    3.43538955786019
H         7.08521474843113   -2.05025637049651    3.25156585111165
H         8.35632996284872   -1.09751230168998    3.99184757672566
H         7.64685216185715   -0.59209301012829    2.47051824867856
C         5.90751570044171   -0.81341574453244    6.12051855198701
H         5.09870773403152   -0.33406903955323    6.66718197473589
H         6.81539076315218   -0.70514539730920    6.70662203714612
H         5.68711013422347   -1.87611163321184    6.06708345557548
C         4.46688326443757    2.50391495293017    7.09729111678165
H         5.19876062863977    1.92940913302689    7.69659858135515
H         3.95293954356650    3.18812559703074    7.79828962857997
H         5.01367345587213    3.11488752814851    6.37443729029187
C         2.61200156782983    1.06780272495243    7.39870976621265
H         2.23262787001490    1.84042276254283    8.09307225025268
H         3.10726494921761    0.30196043651360    8.02700695771591
H         1.75169099613842    0.60772680415203    6.90463292957292

