54
CSD_code = POFHIE | q = 0 | S = 0 | Stoichiometry = C23H20BrN2O7V | MND = 6
V         5.21466846086329    4.31416231191751    2.87187456424097
Br       12.33479153673418    3.18715274631248    7.74352304566533
N         5.18909593489449    2.58952127540923    3.88325900544430
N         6.24737410605287    2.36607578329299    4.65782004926565
O         3.58441682160491    4.03428765399514    2.64155298595433
O         6.72025378290001    4.47612746202101    4.04259464435554
O         1.43571831277609    4.43104254393251    1.15057102404600
O         4.32306242738304    5.26331953789505    4.99463207061803
O         5.35400823448751    6.02413824967305    2.66337919351696
O         5.71588580147970    9.04320243232391    4.54264137987787
O         5.93442207454807    3.66988993400218    1.69097183966877
C         3.15247274574673    1.75537979140071    2.91882826953640
C         2.81750639465858    3.02303123201485    2.39091725205257
C         1.64081454748806    3.17063199711455    1.60986580483544
C         0.83600014894676    2.07101752391648    1.38080172480716
H        -0.05970116405852    2.16132386835481    0.78701109958331
C         1.16894042667323    0.82579895391659    1.91836393912338
H         0.51996753410801   -0.01444880171461    1.72614286598457
C         2.30049626843466    0.66399264974110    2.67685169361314
H         2.55616413971067   -0.30131949328304    3.08576614931467
C         4.33295966062727    1.63602492957891    3.71293492182511
H         4.53110734990179    0.68564879541568    4.21053469294895
C         7.03875580658926    3.41272864485374    4.66506787794768
C         8.30666638059486    3.34195399917102    5.40937530520927
C         9.20264905751157    4.40707476443210    5.33209597187214
H         8.94788623725274    5.25986322979319    4.71980110816611
C        10.39921520791711    4.36516393041143    6.02030674270546
H        11.09949351466438    5.18457481376108    5.96272728644559
C        10.69232070042917    3.25033196292055    6.78902379031787
C         9.81553644933646    2.17978954933064    6.87787598683668
H        10.06887016516383    1.32189346395086    7.48192118432351
C         8.62247810828509    2.22737769709810    6.18454363584321
H         7.92118544436300    1.41040119167286    6.23113333943632
C         0.36090208567579    4.66596022198516    0.26221272928873
H        -0.59553723810546    4.46550651613971    0.76593295305825
H         0.44513678371239    4.00384685937452   -0.61050142962965
C         0.43637325620561    6.12147218634543   -0.17034603050057
H         0.34113095883559    6.77091138325542    0.69547508616819
H        -0.36140098193245    6.34219474865310   -0.87381825878410
H         1.39605435040971    6.31357753740906   -0.64211174106381
C         5.29558481191386    6.89210546884515    3.62585598356494
C         4.69218984719444    6.43699672314787    4.88377927943509
C         4.60954495217562    7.44909658267817    5.90678684135795
H         4.15524949554815    7.20871186183344    6.85396699633478
C         5.12141992115164    8.67744682227970    5.67497540554166
H         5.10343042455100    9.47948843375172    6.39969226657179
C         5.80792981301041    8.16294911450444    3.52244342680170
C         6.54522525651106    8.64290510693677    2.31050395211153
H         5.90445933576514    8.51425004488128    1.43462665972646
H         6.77613371286095    9.70212722683786    2.43448403983003
C         7.82674539936286    7.82863448579211    2.10399783501854
H         8.50056606729243    7.95830920321381    2.94841164074014
H         8.33365746427802    8.15785396065603    1.20088840113409
H         7.58252166551163    6.77010088685691    2.00283351791751

