55
CSD_code = POFHOI | q = 0 | S = 0 | Stoichiometry = C24H18N4O6S2Zn | MND = 6
Zn        9.85449657839777    6.72219504893623    4.08475494669837
S         7.61005271902182    6.11968375903899    5.51743659510766
O         9.01574211546530    5.64403819729343    5.47866879953842
O         7.49304215804308    7.44110343479586    4.91706022491705
O         7.01632013801263    5.99173983093041    6.82286475267175
N         9.66620496652463    8.26860445828394    2.59081177492408
N         8.09462802695499    6.11116402370785    2.76730995561559
C         9.04389106059074    7.83292826047641    1.49380093211524
C         9.29279553728133    8.37093993160848    0.23240477410434
H         8.77547478323213    7.98423927734270   -0.63234104355879
C        10.23448914223215    9.37755160678678    0.11225309911624
H        10.47304486857320    9.79483965788511   -0.85479396906881
C        10.85416730353417    9.84292343640017    1.26027437694024
H        11.58190385292639   10.63717406485957    1.21647429668919
C        10.53574477994327    9.25658586003553    2.47803951314841
H        11.00059908756808    9.58940010896874    3.39229542538490
C         8.07170615911852    6.77116904732588    1.68742137654111
H         7.33256898147005    6.60797947201445    0.89662496288678
C         7.21031526785886    5.09843260612357    3.06536235308231
C         6.72933323494080    4.17808286143481    2.12996324580510
H         7.07899177495883    4.21899461334443    1.10903778676642
C         5.85341470382891    3.18531870695269    2.53246795014176
H         5.49164178693648    2.47058493886616    1.80773732062860
C         5.43854459104609    3.09806270042660    3.85289446632587
H         4.74927153721903    2.32350825146203    4.15301242210000
C         5.92947015250181    3.99783690228589    4.78974799283696
H         5.64853262716238    3.95424529197742    5.83020166332689
C         6.80779056223037    4.97921745597211    4.39323671388630
S        12.09894009078446    6.11969093256757    2.65206936379781
O        10.69325096737700    5.64404379643464    2.69083687988079
O        12.21594943116008    7.44110841128588    3.25245096293929
O        12.69267075731105    5.99175345916432    1.34663977264324
N        10.04279826668796    8.26860822263512    5.57869108668551
N        11.61437444254935    6.11116891601532    5.40219020904920
C        10.66511055037171    7.83292956225444    6.67570209954438
C        10.41620804282172    8.37094214480520    7.93709903958120
H        10.93354534893848    7.98425701451600    8.80184145789205
C         9.47450904300551    9.37754885802012    8.05725250317035
H         9.23598047268277    9.79486021863686    9.02429568602434
C         8.85483661055220    9.84292795225761    6.90923005072284
H         8.12709759555325   10.63717655181528    6.95303107988707
C         9.17326586149103    9.25659641334191    5.69146264932908
H         8.70838654438020    9.58938716770730    4.77721139725502
C        11.63729871898594    6.77117407379204    6.48207853880234
H        12.37643092936040    6.60797707746685    7.27287799718774
C        12.49868356300357    5.09843473604974    5.10413780982572
C        12.97966368894250    4.17808223368243    6.03953522990275
H        12.63000756009325    4.21899443008593    7.06046148705794
C        13.85558209074619    3.18531852867046    5.63702877509295
H        14.21735729116909    2.47058509340724    6.36175867629434
C        14.27045277296233    3.09806561666431    4.31660222625824
H        14.95972436854730    2.32351056240166    4.01648240708939
C        13.77952689313735    3.99784168184623    3.37975023705299
H        14.06046298636154    3.95425104160801    2.33929618061524
C        12.90120661346682    4.97922149734714    3.77626348774000

