98
CSD_code = POFJUP | q = 1 | S = 0 | Stoichiometry = C50H42ClN2P2Pt(1+) | MND = 4
Pt        4.34599080058676    2.95104153518871    3.95724613675946
Cl        6.15542493025830    2.77569063399413    2.53049851619399
P         5.89761021851452    2.76847960488165    5.68194744526069
P         2.84762318957514    2.91584696341658    2.16046833845873
N         2.78953926191566    3.01689120209703    5.32190892740155
N         3.79989408470238    5.42444769235159    4.37712767462243
C         2.25097847913629    1.87295004260882    5.72086920713378
C         1.26285702396231    1.83725053628965    6.71292968024966
C         0.84738147205320    3.00042175040764    7.30155745079530
C         1.40822704422218    4.21816433108723    6.88637087568974
C         2.38445967631135    4.18636230012402    5.86397281973372
C         1.02114185770211    5.45295775673908    7.47468051904323
C         1.56608635158108    6.62213484447061    7.06367021370297
C         2.52033205364976    6.64080537325762    6.01218892408068
C         2.93294453920364    5.43467009199633    5.40198363223040
C         4.28952637441204    6.55027150326641    3.90761717621764
C         3.95864849853120    7.79518889795829    4.47830173099895
C         3.07965756326840    7.83825070398724    5.52550545833464
C         2.73035495335910    0.59802516184242    5.11399430365045
C         5.19334818561890    6.47439890427939    2.72805684046457
C         7.04032384861335    1.36882463780992    5.49503950947684
C         6.65382081358158    0.29083577241935    4.70522325558311
C         7.48782400753106   -0.80167005187885    4.56131155693632
C         8.71366731324414   -0.82268011176034    5.20676589889432
C         9.10278858521056    0.24969376175497    5.99349678790482
C         8.27205554778979    1.34600928135207    6.14041240064348
C         6.98467764162629    4.18614421880706    6.01092965997112
C         7.42094493422528    4.49094591482754    7.29888343327466
C         8.28792376783489    5.54957527641143    7.49966292853234
C         8.72906119364865    6.30591789522235    6.42542329270225
C         8.30545119279853    5.99782678724611    5.14331010217864
C         7.43752231440329    4.94137090945941    4.93428468163006
C         5.10509991520577    2.46303552298149    7.29357385220750
C         4.49109786771656    3.52679002458424    7.95222528052625
C         3.79527267600774    3.31222908042688    9.12620036476029
C         3.69887825894293    2.03294991917383    9.65156958137701
C         4.31032177799725    0.97208059414915    9.00489273229030
C         5.00894330889254    1.18305567356594    7.82874075457350
C         2.88421640039893    1.42794658818296    1.11564972675630
C         1.95999798361125    1.30406585256514    0.08015197182671
C         1.98829433062625    0.19089513242955   -0.73717980911290
C         2.93924738484108   -0.79854214007009   -0.53340627523661
C         3.86505026375117   -0.67280517496767    0.48810060813844
C         3.83913045305689    0.43881206762735    1.31244631102555
C         2.90310540556221    4.20055421318715    0.87099887664561
C         1.78693566481419    4.91933238394399    0.45616505277493
C         1.89886060834292    5.82319499301623   -0.58646405505625
C         3.11328226460107    6.00895233832950   -1.22575845167606
C         4.22260819410643    5.28058256945807   -0.82627165477626
C         4.11983796403468    4.37753492921808    0.21519365057372
C         1.14755966508626    2.96584514359641    2.80706855486279
C         0.67629692929859    4.16301732343979    3.34407347734713
C        -0.55759282517122    4.21335743306489    3.96385374826709
C        -1.33062316635608    3.06701825552072    4.06346349880229
C        -0.86632121918131    1.87328057004170    3.53737323671730
C         0.36946206749849    1.81844152023555    2.91648907873888
H         0.84838139501887    0.88681053174184    7.00718475931309
H         0.09719629508894    2.99680538173828    8.07720840306397
H         0.28249935978521    5.42890240418820    8.26123087522640
H         1.27988824573409    7.56053389253796    7.51420788465643
H         4.39459990993639    8.69602007768987    4.07610968850103
H         2.79554266327575    8.77593914994707    5.98013729680099
H         2.92408750060458    0.72527051366221    4.04619084893208
H         1.99746947422668   -0.19237600820247    5.25198099657641
H         3.65752352410624    0.29057275617060    5.60147936362526
H         6.12925209220370    6.99022441144930    2.93134910212990
H         4.72463854251668    6.95579503301446    1.87026166875595
H         5.38973374920062    5.43402288112764    2.48042440092210
H         5.70115779957441    0.32619078601149    4.19123208970612
H         7.18661646379584   -1.63308864686273    3.94193851394194
H         9.36932531553630   -1.67203128317503    5.09130230938956
H        10.06050579946452    0.23463857859034    6.49121636532886
H         8.58305988079280    2.18447262515984    6.74699683660663
H         7.08735839026167    3.90340426502323    8.14303689130216
H         8.62476389937717    5.78086226396256    8.49910215701327
H         9.40765654495588    7.12902811857652    6.58962862622959
H         8.66011454206511    6.57650300876861    4.30349241133242
H         7.11782708817091    4.68420433196651    3.93594948018543
H         4.57744513361594    4.52612817170721    7.54544086550381
H         3.33006125553707    4.14419319134694    9.63385091739290
H         3.15597990147197    1.86613202303265   10.56909846926622
H         4.24752130682712   -0.02270120363801    9.41933677042781
H         5.49819082501700    0.35496980481792    7.33351292518583
H         1.22513055075838    2.08151162890305   -0.07925847388188
H         1.27197699959282    0.09519418368576   -1.53907503936767
H         2.96055667285670   -1.66378816390330   -1.17814274689271
H         4.61231463152247   -1.43698577503558    0.63941920537854
H         4.57749658328645    0.55662048563150    2.09431538958824
H         0.82792974253159    4.77411934486076    0.93216030126420
H         1.02895812151023    6.37826237138575   -0.90490626982995
H         3.19128804611410    6.71317554382874   -2.04008325535542
H         5.16813168289321    5.41168404502960   -1.33019705169901
H         4.98025029482886    3.80163071414548    0.52577596806277
H         1.28562014083003    5.05378194055744    3.26973112282613
H        -0.91669956028286    5.14692386234461    4.37151764412278
H        -2.29439370768559    3.10620375466956    4.54734865046882
H        -1.46847356611765    0.98026121250580    3.61056881334797
H         0.72576657630311    0.88340885537704    2.50713533337761

