58
CSD_code = POFLED | q = -1 | S = 0 | Stoichiometry = C32H16BrN8Zn(1-) | MND = 5
Zn        3.90097091847124    0.66716522682595    3.70655302046559
Br        3.50895289947303    1.55841915959859    1.55842098643127
N         3.02868172311963    3.31488174991032    5.64961114033105
N         2.28052692609246    1.19053929956026    4.83172335096281
N         0.85861956920767   -0.68584367460338    4.38565693530021
N         3.09168317023390   -1.20651098143757    3.69006202331098
N         4.98081758219339   -2.45361336076078    2.90428846085673
N         5.70666114381307   -0.27829486438672    3.59916258478417
N         7.15089199648149    1.54706739640914    4.16826045919991
N         4.89546971389217    2.11881700466167    4.74064818257242
C         2.11462053793981    2.39748540278011    5.41406370382582
C         0.72242220197362    2.55773881051006    5.80703743664487
C         0.02433714759133    3.58333257128174    6.42041756419571
H         0.52733240884309    4.49503465149211    6.70386649857311
C        -1.32835588850470    3.39655737182311    6.64841559651854
H        -1.90390834073095    4.17994963857158    7.12279983151257
C        -1.96828928761524    2.21654778979697    6.27592187791906
H        -3.02711903018673    2.10877251961155    6.46898384543555
C        -1.27586271765877    1.18592814272385    5.66351271155343
H        -1.76441674052845    0.26960621619162    5.36988488039120
C         0.07640758763968    1.36660939792151    5.43090223684618
C         1.10226035922267    0.53097966948499    4.82450942406885
C         1.77995065481372   -1.47185014054342    3.86996491475542
C         1.49653439337022   -2.83027854090038    3.43095546028209
C         0.33968705318550   -3.58866899550929    3.38694627122440
H        -0.59862493323716   -3.17622638779991    3.72460019142824
C         0.43284664768829   -4.87917889743792    2.89439432876913
H        -0.45335875662582   -5.49726781946654    2.84329087950219
C         1.64878863207843   -5.40081924206171    2.45846645257633
H         1.68099179213014   -6.41299007384279    2.07833010157848
C         2.81011211255530   -4.64836052347963    2.50093154382945
H         3.75560618318885   -5.04393940942535    2.16313044871948
C         2.72389733955948   -3.35672391625751    2.99044960224019
C         3.70315946944810   -2.29665138424354    3.17915972371756
C         5.88831034468161   -1.52130355119014    3.10386799132460
C         7.30279755589997   -1.73251281696964    2.83380929887861
C         8.01947782657918   -2.80085279371160    2.32350254717966
H         7.51559665517694   -3.71055539684696    2.03522838849762
C         9.39029373064177   -2.65555180863965    2.19541786320260
H         9.97951873596869   -3.47032406098581    1.79669954111077
C        10.03034750586021   -1.47567194913116    2.56813176351416
H        11.10295448449536   -1.39943764770398    2.45095485501393
C         9.31991847399240   -0.40368667436743    3.08077346020562
H         9.80766134905720    0.51449894539204    3.36987672593329
C         7.94888833255430   -0.54146552528028    3.21006247090029
C         6.90074006697884    0.34513571399071    3.69349596020610
C         6.22280887158695    2.34847234106837    4.64682990576667
C         6.52814504193935    3.65681209085396    5.20663981195551
C         7.70331607542827    4.37331083962521    5.35159295474008
H         8.64067824551088    3.96282409142281    5.00895621646871
C         7.62797123349420    5.62326666921947    5.94202427613908
H         8.52759255051915    6.21069773402748    6.06704566170628
C         6.41211334040598    6.14486911212516    6.37824751056371
H         6.39340791661658    7.12628293331681    6.83265772202284
C         5.23305660203783    5.43292303984910    6.23809713174675
H         4.28679013351507    5.83055853019011    6.57128077247125
C         5.30082120348006    4.18323725421965    5.64728535255012
C         4.29959925446045    3.17325912252718    5.33769914757905

