94
CSD_code = POFSOU | q = 0 | S = 0 | Stoichiometry = C39H52N2Zn | MND = 3
Zn        2.85562641763841    3.50958590408341    6.69534626271777
N         2.58296066140371    0.64748758479722    5.36484340349942
N         2.59811749041558    0.41787955853676    7.50495582912517
C         2.79963956662415    1.26872995341330    6.51239502414524
C         2.25888458894347   -0.93532727823880    7.04829420972097
H         1.28926184586326   -1.24088871021627    7.44797038546651
H         3.01290404634664   -1.64720913111759    7.39766103322837
C         2.24709005227787   -0.77178647932074    5.52742535869340
H         2.99394891296348   -1.39246124268106    5.02298640893175
H         1.27079500562933   -0.98561879053937    5.08629036344573
C         2.79837328694488    0.69031670748518    8.88200327270373
C         4.10304440584859    0.76829882640948    9.37390531443071
C         4.28578856805598    1.00212702790515   10.72830070965502
H         5.29152529564637    1.06229410187994   11.11931872980027
C         3.21012809365977    1.16106429453863   11.59075338996132
C         1.92526417157733    1.07763726039627   11.07479193577036
H         1.07896256469384    1.20579068606383   11.73421218777871
C         1.69849339363785    0.84188399271054    9.72681455906723
C         5.27799819213281    0.62516244216625    8.45883562712494
H         6.18162992191840    0.42730663973650    9.02875311457892
H         5.42227286195807    1.55233678123664    7.90227095248047
H         5.13160105190182   -0.18103753238468    7.74281182119627
C         3.43462007887877    1.44880092740073   13.04298768254010
H         4.34651279254458    0.97376789968726   13.39697784819770
H         2.59702343620771    1.10273585670544   13.64357218847802
H         3.53615506478729    2.52410341532201   13.19201691843531
C         0.29729271290398    0.75697958879219    9.20018593535547
H        -0.03587224326882   -0.28141059902477    9.16094918368498
H         0.23410112031845    1.18115791479766    8.20031365718759
H        -0.38298783008299    1.29882302617797    9.85167030526607
C         2.74323207485894    1.21230170572242    4.07435848269674
C         1.61908651368684    1.53503800447260    3.31416548938032
C         1.80561151587662    2.05035429333547    2.03910678764155
H         0.93928014224457    2.31107750191497    1.44831956468413
C         3.07386550568037    2.24617520114377    1.51458182743286
C         4.17502492613840    1.91458750979949    2.29248775669158
H         5.16808193974638    2.05992974556986    1.89137679130003
C         4.03329591785215    1.39999860791640    3.57153606100845
C         0.23227593590038    1.34051294516808    3.85069327659602
H        -0.44798537259925    2.06036519410716    3.40320498450548
H         0.21170997728497    1.46978846236263    4.93046345495522
H        -0.13472469097049    0.34124771123901    3.61080865535012
C         3.25983046081247    2.83132982055601    0.14899484285483
H         3.47597051169520    3.89654700367540    0.23263224137826
H         2.36222958749131    2.71346281631010   -0.45254039065600
H         4.09557926531639    2.36042053444054   -0.36383220877891
C         5.23514924551119    1.07317782595009    4.40086258736082
H         5.39600994423621    1.86060805926025    5.13881016333717
H         6.12187719359328    1.00724953596518    3.77627923695251
H         5.11023794978823    0.13193626011820    4.93236531122459
C         0.92336475923635    4.31434599085154    6.72490687413381
H         0.15222709250566    3.56044558753256    6.59992547728215
C         1.11426544202383    5.32564875463688    5.69430588201159
C         1.44537346380549    6.50491740317321    6.30742127044290
C         1.40444881115176    6.31684004062840    7.72709431795125
C         1.04573712288925    5.02179007397512    7.99273293447848
C         0.90343842358297    5.06189446466418    4.23433009621253
H        -0.16183561448172    4.94890382902127    4.01868384131522
H         1.41077009194623    4.14976423585171    3.91729642069611
H         1.27790373980803    5.88461529558820    3.62961535969405
C         1.80513917097429    7.80901997410947    5.66999546808178
H         1.87484288682619    7.71570411352634    4.58855956572194
H         2.76417204513106    8.16926878317506    6.04463720714367
H         1.05500308758283    8.56814572663018    5.89807635379762
C         1.72881862121231    7.40547300368247    8.69987759886116
H         1.58834394117275    7.07515496341160    9.72668386131249
H         1.09207910371176    8.27417150369468    8.52807026536360
H         2.76549576128500    7.72817050594427    8.58692525228151
C         0.76226639505292    4.38474568714194    9.31983212335341
H         1.49726196952308    3.61541808080253    9.56856630832869
H        -0.22359765130409    3.91649773026291    9.30888561850764
H         0.77151495583583    5.12730201757690   10.11414905566910
C         4.52439477993855    4.71791466175428    6.85271281558877
H         4.03486888430432    5.68559801015701    6.93539311414225
C         5.38063550640759    4.51905182544505    5.68655896773680
C         6.55579277258049    3.95469002781067    6.09822029424291
C         6.52682344518044    3.81678292423025    7.52736999510692
C         5.33398081097766    4.29658518923830    7.99209830007127
C         4.99642593900738    4.95724185151452    4.30774235338884
H         5.68841048605293    5.71717938472621    3.94065786179204
H         3.99445549503108    5.38251718009784    4.31998686844215
H         5.00576278115782    4.12851092010035    3.59841859559230
C         7.72178316538141    3.56376370442890    5.24666743662118
H         7.47778368513902    3.66604297845057    4.19185042841422
H         8.02150066877555    2.53197466783786    5.43827627677799
H         8.58119285431914    4.20026326844954    5.46289543546026
C         7.66191770545137    3.27350737331278    8.33614896264982
H         7.35902569840229    3.12352754726276    9.36984828936986
H         8.50409443948886    3.96752183978063    8.32357639721004
H         8.01448800956329    2.32347917576929    7.93202250562282
C         4.89139438589112    4.45515536519858    9.41328112124963
H         4.81023033748977    3.49388808438084    9.92410324436968
H         3.91753579161147    4.94069442260289    9.44617733235259
H         5.60147466583133    5.06853246582444    9.97013372257130

