57
CSD_code = POFSOT | q = 0 | S = 0 | Stoichiometry = C18H34MoNP3 | MND = 9
Mo       -6.49563876825191   -0.35114856858573   -7.87335656187255
P        -6.96228277475748    1.96116002493176   -7.87744008364504
P        -8.79227633841021   -0.87783615840784   -8.00626858425818
P        -6.31923428983172   -0.37749197131697  -10.20964198880829
N        -6.97929606616638   -0.43377272651396   -3.56130773887030
C        -5.70448078581244   -0.49994461789815   -5.60303616120151
C        -4.74121701586596    0.08578524855314   -6.48846703675826
H        -4.26365333990372    1.01417150662881   -6.18774525640624
C        -4.22401745914116   -0.65477404557725   -7.54768658690273
H        -3.36945863278392   -0.28841669634220   -8.10589146176360
C        -4.80166470670182   -1.90339911675500   -7.87933790524070
H        -4.37015946409702   -2.49026647075449   -8.68472945681894
C        -5.83559850660135   -2.44182990621622   -7.11509683815781
H        -6.20528839905950   -3.44081430299619   -7.32084629558388
C        -6.26030513585541   -1.77664798165564   -5.93013146701670
C        -7.15532881788718   -2.34107018774737   -4.99208816423744
H        -7.54794823507841   -3.33694221639170   -5.15360030624720
C        -7.48799532684951   -1.63615452439414   -3.86625792656371
H        -8.17957811186723   -2.03805371210673   -3.13595248165770
C        -6.11644874332641    0.09267781999698   -4.39673869623320
H        -5.67938530879554    1.03508672403767   -4.08058271439809
C        -8.38954283622486    2.82014883777979   -8.65091295211723
H        -8.26158503951707    3.89975870047373   -8.56094910926188
H        -9.30162135383279    2.51990077157665   -8.13736865497354
H        -8.46195453099574    2.54637590670533   -9.70018569745524
C        -7.07636556373847    2.71580543663197   -6.21551227069964
H        -7.37139081627532    3.76329645751411   -6.28400219535892
H        -6.10456235675176    2.64652039344625   -5.73264527838696
H        -7.80229187555115    2.16639961640420   -5.61828428320150
C        -5.60059038100268    2.96136513951251   -8.57024370913999
H        -5.75356333082663    4.02312462390625   -8.37454653074825
H        -5.54577169005421    2.78661960451912   -9.64260880920138
H        -4.66790943320353    2.63224855355979   -8.11626139223339
C        -9.16308550446313   -2.66521759035073   -7.93513548050130
H       -10.23821029955760   -2.84038786331857   -7.98329425617928
H        -8.77242834796208   -3.06496476898216   -7.00381143379703
H        -8.67120129338847   -3.16295112686294   -8.76890539972399
C        -9.99428967501859   -0.41869066804256   -9.31896062820869
H       -10.99501812752157   -0.73956512575646   -9.02645135538351
H        -9.71413617434835   -0.91177378225399  -10.24827637173882
H        -9.98497799485729    0.65817670780214   -9.46700362821038
C        -9.71164972548561   -0.29080732601807   -6.54436142847429
H       -10.72212755304622   -0.69984954834323   -6.52171810915871
H        -9.75196809498101    0.79689566428011   -6.57310261955759
H        -9.17086377753415   -0.59471674974355   -5.64930743520715
C        -7.18839777304724    0.72024020760492  -11.39423407437642
H        -6.96056807136614    0.41390146466019  -12.41608199555791
H        -6.85487034180024    1.74433801096787  -11.23855834905850
H        -8.26029237901180    0.66218738048198  -11.22440636143043
C        -6.72139054708318   -1.99305700023211  -10.96485092409652
H        -6.44388551322904   -2.02127773754512  -12.01877601419047
H        -7.79083929195826   -2.16532038142191  -10.85906776789462
H        -6.18865402585506   -2.77063741053382  -10.42074567023343
C        -4.61888045583089   -0.14814081300800  -10.84261474397835
H        -4.60977718656706   -0.15836751940566  -11.93273709583958
H        -3.98301750808305   -0.94716037703595  -10.46926315179846
H        -4.23776490298542    0.80536419053946  -10.48171110998684

