54
CSD_code = POFSUY | q = 0 | S = 0 | Stoichiometry = C22H24FeO7 | MND = 7
Fe        7.21856258829977    9.76308086868147   16.94533518978105
C         7.33001812970555   10.75908191904616   18.79769626471325
C         8.71249238531266   10.26949861543824   19.23915741606378
C         9.19704121633043    9.26254941199472   18.19785591813437
C         9.49411057550619    9.74622628747158   16.93193993522109
C         9.00312792746537   10.99363217254818   16.45157509532643
C         9.30604288327067   11.45804021480563   15.09316983036202
C         9.52165373312036   10.58956574550162   14.02154672624627
C         9.80854347144618   11.07682125695823   12.76174196520025
C         9.88102063966552   12.44224268064284   12.53763556336773
C         9.65914097093656   13.31802096620060   13.58695326972976
C         9.37289487202820   12.83081834513565   14.84738456089594
C         6.27231124850422   10.32357293177110   19.74039397240851
O         6.40213765162124    9.52330814300466   20.64010912636262
O         5.09951467624282   10.93271077752515   19.46959347938289
C         3.99738075291255   10.54011592164109   20.27277281370689
C         9.73607048487506   11.37052582181859   19.45449707124735
O        10.90397215875921   11.30119885094624   19.17316672886894
O         9.18246267252685   12.44198610380475   20.03524567706486
C        10.06317125519809   13.51529403904310   20.33576886403512
C         9.67083007257543    7.90656086992939   18.69324618850103
C        10.77758324337802    8.12722866691591   19.73860262300810
C         8.50194352251769    7.14342178793566   19.33157740204964
C        10.23327369780789    7.03938797203675   17.56218800902798
C         6.03491567938028    8.65029420550332   17.66421567586894
O         5.15968142128194    8.00435254569095   18.01298729994119
C         7.08409521371553    8.86257208627457   15.43263431601689
O         6.84838196769092    8.27698718409839   14.47764473488931
C         6.13397798201356   11.06854922280411   16.43363121602165
O         5.40767204697646   11.90286109197506   16.15771769179974
H         7.26279904192053   11.84488882825073   18.71114079640256
H         8.59050714281464    9.77770413134256   20.21149164448219
H        10.01176748091865    9.10598755013303   16.22938098631465
H         8.97307687188875   11.81838925047377   17.15892632451080
H         9.44998058691057    9.52199483927065   14.16821799506424
H         9.97260290107715   10.38768500942385   11.94621762141222
H        10.10358098239918   12.81999306528205   11.55104867891585
H         9.70870088358443   14.38427905783431   13.42127943302791
H         9.19950410598037   13.52200487998390   15.66050931939438
H         3.15805706080403   11.15474639834624   19.95816507268278
H         3.77530732572612    9.48190451958704   20.11795529223324
H         4.21872431848767   10.70182034871066   21.32984091123869
H         9.44980682662469   14.29796308780769   20.77435672298071
H        10.83070869060530   13.18940875482721   21.04027650952305
H        10.55221168791788   13.87206906248183   19.42666996722926
H        11.52370945721789    8.82130382066705   19.36019946787603
H        10.37431803934972    8.52901542367210   20.66386204582453
H        11.26076100851324    7.17987340356152   19.96508171285495
H         7.79448846503319    6.84215238802350   18.56029777647900
H         8.87063704666951    6.24901374518454   19.82861509686367
H         7.96735039069694    7.74324217436881   20.06261209376779
H         9.50461735567722    6.92552444093973   16.76074739870340
H        11.15119353951511    7.46139871852876   17.16002702902852
H        10.46276364859941    6.04913039416472   17.94899547795143

