56
CSD_code = POFSUZ | q = 0 | S = 0 | Stoichiometry = C17H33MoN2P3 | MND = 9
Mo       19.43849489935818   -3.41470930908511    6.99804753565410
N        21.23364751358480   -2.15245924095317    7.65266282669388
N        21.11946689955411   -4.93666383582001    6.98040166230663
P        17.83935212955152   -3.39666797303053    8.71642765456156
P        18.36408461705237   -1.58152003731391    5.97873494824487
P        18.17410978471575   -5.00012233995264    5.80384451760559
C        21.53136602498684   -2.59790668809016    6.38702889513944
C        22.01387377830504   -1.68559619670110    5.42484129106331
H        22.10441929802721   -0.64516009832973    5.70725583986309
C        22.40626037082438   -2.11579630367073    4.18395132832141
H        22.76881002134395   -1.40300524746797    3.45667456604942
C        22.38366922908259   -3.47878626405021    3.86357354420209
H        22.73292266904328   -3.80616805800091    2.89511163268194
C        21.95798632037303   -4.39937966732598    4.78669035900452
H        22.01568204088028   -5.45966887645330    4.58141438489847
C        21.49681991375711   -3.99227774939942    6.05191476763193
C        20.98104008820102   -4.49329305515618    8.22914934463519
H        20.87647489928114   -5.24948408049811    9.00456631329414
C        21.01355670600658   -3.11124170590320    8.55340438703146
H        20.95076352497180   -2.78767902906432    9.59226180599069
C        17.77177119749490   -1.81899828333423    9.64049669486058
H        17.23694832465372   -1.93362725704618   10.58390162975506
H        17.27274064994286   -1.07394607134532    9.02361911435500
H        18.79254805467566   -1.48857741578964    9.82659411042378
C        16.03698371528905   -3.73199413116020    8.59156063047054
H        15.56033813328207   -3.55329266563471    9.55619829187887
H        15.88629468507181   -4.76910976135386    8.29740004190001
H        15.59859608866444   -3.07951253656797    7.83994230011341
C        18.21927163317842   -4.53215337597599   10.10207020459987
H        17.43761230265143   -4.48857794688732   10.86122879090810
H        19.17041612821124   -4.24448232363939   10.54630450174684
H        18.30119641075924   -5.54782425664716    9.71852252354340
C        16.57390084370830   -1.15554590657672    5.93764706292055
H        16.42648476699167   -0.25132596977513    5.34581840876637
H        16.21707491381490   -0.98465291876791    6.95165313710031
H        16.01418653049715   -1.97739884064419    5.49598262952122
C        19.01735255878402    0.02860675432539    6.53084140845420
H        18.69409421778975    0.83181645036686    5.86752007407839
H        20.10195452828790   -0.03137701870598    6.55529234910475
H        18.66387305133703    0.21986340389937    7.54265277970431
C        18.70941883982630   -1.51534481144155    4.18750323854375
H        18.33066458073000   -0.59360255125290    3.74462382438319
H        18.23676680581023   -2.37567796324700    3.71429752600280
H        19.78662674506498   -1.58372865372914    4.04175091783908
C        16.47088518116583   -4.81521108153943    5.13821424915252
H        16.12655837324619   -5.76778694374560    4.73413541218029
H        16.48937881692617   -4.06998360299267    4.34353827185917
H        15.79654053315632   -4.48317519106663    5.92285699108246
C        18.97986229447729   -5.63485384989179    4.29139462835038
H        18.32804304020209   -6.33212914211254    3.76385782823403
H        19.89146028812912   -6.14288053029548    4.59657189193690
H        19.23986646983933   -4.80312611569282    3.63779988269105
C        18.01609895976565   -6.56851711079755    6.71862620587048
H        17.60115135655137   -7.35502899070181    6.08740190976526
H        17.38237877409486   -6.41638531765759    7.58993126311533
H        19.01745947702725   -6.84207231631126    7.04979166991500

