116
CSD_code = POFTEL | q = 0 | S = 0 | Stoichiometry = C53H58N2O2Zn | MND = 3
Zn        1.74936520181612   13.56549152220807   -5.25986181876965
O         1.94200531064220   14.73062213421920   -6.62362253714678
O         2.78251254193131   12.53005224470392   -4.20754484041770
N        -1.22318884761038   12.86693080198557   -5.53350950118374
N        -0.80989286481477   13.63703094775216   -3.58480568500124
C         3.10957256715637   14.91510934309268   -7.34481544197152
H         3.75209978655280   15.65893484547695   -6.83220854680519
C         2.77290252702861   15.46670993778379   -8.72446493796234
C         2.12118228017052   14.67494096647542   -9.66112776172309
H         1.86938437707840   13.65588170304411   -9.41103141704639
C         1.78888901773543   15.18467526081695  -10.90279933741612
H         1.28540006816091   14.55637330531740  -11.62494312377136
C         2.10482904033134   16.49334058226783  -11.22742413717015
H         1.84729648861845   16.89076893062161  -12.19898612745669
C         2.75317102461387   17.28895785907156  -10.29932751057283
H         3.00242435597889   18.31181053962314  -10.54474533177869
C         3.08349583302966   16.77774021222746   -9.05610686409265
H         3.58732569713616   17.40354248745180   -8.33269794524863
C         3.93589391524686   13.65978197110717   -7.53381416857657
C         5.31071044588755   13.75714596119587   -7.71020522882359
H         5.77685844208567   14.73236706897006   -7.70349839785208
C         6.08006155562211   12.62155711652171   -7.87899620903757
H         7.15019234675248   12.70926844155114   -8.00381188000375
C         5.48322306409136   11.37110308110944   -7.87984264393827
H         6.08558880096980   10.48205542228180   -8.00197510669503
C         4.11213113695653   11.26721626721565   -7.72736454292694
H         3.63983762486649   10.29522849814565   -7.73996078861377
C         3.34196379057049   12.40570116047724   -7.56128210683990
H         2.26476948731907   12.31975741172415   -7.46817032883755
C         4.15864621768046   12.63428413386205   -4.07867219219213
H         4.65250313266262   12.01746991316862   -4.85667443049167
C         4.69728935768254   14.04178774912875   -4.21259210728565
C         3.92739073362332   15.14264603274595   -3.86325839684395
H         2.93064795645404   14.99334855904409   -3.46260016192653
C         4.43221715599538   16.42474121862660   -3.99901855422229
H         3.82180481119645   17.27480532745841   -3.72939354938680
C         5.71661052572607   16.61958157300511   -4.47484140166043
H         6.10854093510599   17.62052087002365   -4.58753022984361
C         6.49985356688594   15.52440724520081   -4.80201534449381
H         7.50629647245472   15.67044143010172   -5.16831803190871
C         5.99396532934050   14.24518228039506   -4.66859877539445
H         6.60266328511571   13.39073359430116   -4.92901563359472
C         4.56144182869641   12.07230485120795   -2.72030050626400
C         5.02228475122888   10.76675275190322   -2.61887314569374
H         5.13287474291645   10.17366558216864   -3.51565835199275
C         5.33588162114659   10.22088809682848   -1.38658201220906
H         5.69508075817411    9.20339722254243   -1.32342665471822
C         5.19191701556918   10.97637505391493   -0.23593939487800
H         5.43848577043727   10.55284300002426    0.72746508535888
C         4.73073066933323   12.27868617140888   -0.32810877957218
H         4.61891632624586   12.87579944968338    0.56666598275803
C         4.41651752765663   12.82255674964144   -1.56070691071871
H         4.05466505175337   13.83748908925092   -1.62323046182444
C        -0.99791368436702   12.45200661919348   -6.87437719432623
C        -0.52368110651796   11.15805708205282   -7.10304668029482
C        -0.21526747168352   10.80572801094739   -8.41085301710511
H         0.16958176257390    9.82010601029126   -8.62224846452645
C        -0.38615134337849   11.70588720671515   -9.44564932201240
H        -0.12603210010149   11.41867812706807  -10.45388694927748
C        -0.89199488828270   12.96790435518767   -9.19885446658582
H        -1.02628337352041   13.65832252889999  -10.01615375290646
C        -1.20775547100917   13.36743162158477   -7.90725512456009
C        -1.76210021809559   14.74659170085464   -7.64617035545445
H        -1.97431338336100   14.85205711558877   -6.57764933224055
C        -0.73476287182656   15.81550617923168   -8.01995735376640
H        -1.09476103067477   16.79791617262059   -7.72244962579185
H        -0.55274024999401   15.82636957666444   -9.09132627501913
H         0.20891844174448   15.61428015113897   -7.51562791568660
C        -3.07797515177434   14.94952008322403   -8.40318529090749
H        -3.50187744461311   15.92003346041326   -8.15524826473319
H        -3.80022528203471   14.17905142465546   -8.13783742161006
H        -2.91811786683656   14.91326039796962   -9.47730463732408
C        -0.37864029704779   10.15438018838544   -5.98205529201875
H        -0.75191856870296   10.59534869160214   -5.05261129550637
C         1.08698258159362    9.78009111518804   -5.75722179689116
H         1.66181973501967   10.65251939379505   -5.45023521013216
H         1.52391910766228    9.36982391573492   -6.66411828175693
H         1.16089883286311    9.03266354083405   -4.97046665335617
C        -1.22164791573696    8.90871684164391   -6.27473959493559
H        -1.19778396111797    8.23621567631187   -5.42026748026334
H        -0.84083368384045    8.37222590647228   -7.13951723901002
H        -2.25694994853526    9.18221749803777   -6.47021240383777
C        -0.24003045301246   13.34051658433678   -4.75893098870394
C        -2.41054389280756   12.86483496429464   -4.85389755868983
H        -3.32338067518857   12.52309269552290   -5.29685802101993
C        -2.14745774481453   13.35196748820786   -3.61519506807369
H        -2.78796205304340   13.51712970305797   -2.77331204449115
C        -0.06288232989385   14.16303461648142   -2.49567877843670
C         0.18856188355547   15.53676464153870   -2.46036372841842
C         1.01283764817473   16.01568391244476   -1.45004157154104
H         1.24172664848085   17.06905688198728   -1.40137257175419
C         1.55426585196318   15.15719977399274   -0.51178816260184
H         2.20858010773047   15.54559326303229    0.25481068576624
C         1.25743298532531   13.80809645949145   -0.54355875081871
H         1.68023269469612   13.15095225076162    0.19935169564856
C         0.43999962852211   13.28335428407584   -1.53537677269694
C         0.10818345316477   11.81123876567212   -1.55622775157984
H        -0.57428999805386   11.60870829370358   -2.38767529078169
C        -0.60261836413373   11.40320633199167   -0.26234142020234
H        -0.89783284889150   10.35771275492682   -0.31606189688688
H        -1.49499081569944   12.00664150309774   -0.10358544334465
H         0.05180553114492   11.52760126050049    0.59604688831547
C         1.37092623153736   10.98005010429588   -1.78249738088762
H         1.89109827482414   11.33380508425108   -2.67088820282423
H         1.10911293327107    9.93268175307206   -1.91574031909684
H         2.04900906306543   11.05990649585183   -0.93704623281904
C        -0.43835594817258   16.48540080881175   -3.45652561265198
H        -1.10736471770716   15.92461282902259   -4.11652114787650
C        -1.28240656305217   17.53477937046464   -2.72540090856249
H        -2.01448970079058   17.05594118502733   -2.07760359135748
H        -1.81189238525765   18.15286201800829   -3.44693519254285
H        -0.65889499728484   18.18292496901389   -2.11561875618361
C         0.62008079553944   17.15309858161825   -4.33520838379321
H         0.14416194585207   17.84869177635552   -5.02277608681847
H         1.15462947971652   16.40856094902484   -4.92310188278386
H         1.33422462439394   17.70398308445532   -3.72858483343263

