69
CSD_code = POFVEM | q = 0 | S = 0 | Stoichiometry = C36H28P2PdS2 | MND = 4
Pd        2.25100539472189    3.89866398125725    0.00009476748165
P         0.96327346249788    2.94859427032192    1.57458343475292
S         2.47066545822384    5.68780989177060    1.43788288604168
C         1.66712797822140    5.22746733970811    2.90527103732726
C         0.96556413435629    4.01873967494085    3.03036479977859
C         0.32280768513211    3.67944137483130    4.21521859102893
H        -0.21103488001939    2.74068643438698    4.27899050639477
C         0.36584127307316    4.54359460413112    5.29081398263852
H        -0.13189157752092    4.28764345214161    6.21376716362603
C         1.05477667273141    5.74765400243592    5.17657829465568
H         1.08697913335116    6.42512352777541    6.01744109596414
C         1.69571948857972    6.08989612556020    4.00661065320437
H         2.22883747491647    7.02429854352647    3.91887713160234
C         1.81876804317323    1.44786958520046    2.13464862325873
C         1.22729231572412    0.39352210675088    2.81979935590893
H         0.17290198567486    0.42313065180967    3.05605329385707
C         1.99396182787923   -0.69652659151510    3.19325338474051
H         1.53237215186003   -1.52208581785320    3.71541513166182
C         3.34752050936427   -0.73171553255988    2.90303340882181
H         3.93769833983700   -1.58847080810747    3.19226998095828
C         3.94905381490361    0.33337275304635    2.25019910766483
H         5.00746575823782    0.31021014533359    2.03827392814580
C         3.18840641953876    1.41960187664067    1.86486201402118
H         3.65466422092989    2.27152810083289    1.34356321389311
C        -0.78582284359192    2.57208608376801    1.29178556066992
C        -1.67822641160897    3.64007935971998    1.37744143440248
H        -1.31838607877743    4.60367921642845    1.71659709870002
C        -3.00422547390986    3.46676310788324    1.03172073551272
H        -3.69312062468093    4.29527683215537    1.10666639297749
C        -3.44788091595370    2.23293255080928    0.58243935410013
H        -4.48325013031157    2.09848564763067    0.30681244437163
C        -2.56272618204952    1.17220353955128    0.48304945677126
H        -2.90793042543531    0.21166803077107    0.12869465018236
C        -1.23503430284547    1.33941866098656    0.83097465337530
H        -0.54300931345095    0.51360535230897    0.75339619456277
P         2.07150875329218    2.30876833898759   -1.57482925564942
S         3.68959389200759    4.98390714205131   -1.43840633303422
C         3.69346412530514    4.05740771939136   -2.90550854739271
C         2.99761303615721    2.84538128868464   -3.03049374878125
C         3.02581865151865    2.11863874733578   -4.21504938830778
H         2.47994250876429    1.18683112193252   -4.27871818101751
C         3.75316417312486    2.58765331862127   -5.29046354817590
H         3.78094139791177    2.02824099909732   -6.21316302664714
C         4.45123361634306    3.78645024032219   -5.17635718348023
H         5.02226935331109    4.15278122683984   -6.01705125950337
C         4.42649879652250    4.51308990741192   -4.00667419698358
H         4.96902915001748    5.44206014472069   -3.91901622005538
C         0.34417246420814    2.29915899690056   -2.13518828540679
C        -0.27282365760591    1.25980839320086   -2.82075909111880
H         0.28031281321183    0.36175229698432   -3.05733838170904
C        -1.60017531475897    1.37845448212838   -3.19427737213312
H        -2.08404043714426    0.56597308353142   -3.71678846041189
C        -2.30782920335602    2.53273493283515   -2.90366772403474
H        -3.34490539463660    2.61523442985626   -3.19291924076918
C        -1.68656324868176    3.58619231404751   -2.25045465996664
H        -2.23612265559123    4.49097737427456   -2.03824160054927
C        -0.36551849725212    3.47086905788999   -1.86510760830664
H         0.13881117335183    4.30069056200132   -1.34361073087227
C         2.61993519988762    0.60577659515037   -1.29163575779412
C         3.99118342146858    0.36728717829316   -1.37618267336410
H         4.64582243747541    1.16092719161441   -1.71475341987893
C         4.50414712990161   -0.86759124374790   -1.03011735291242
H         5.56621792577594   -1.04964623895876   -1.10420900908187
C         3.65735359828203   -1.86897460116683   -0.58156936252772
H         4.05863840449788   -2.83275145348756   -0.30563458072537
C         2.29601716628970   -1.63314018802759   -0.48328687973282
H         1.63670019070848   -2.41255854296277   -0.12948902586276
C         1.77692027919338   -0.39984409757575   -0.83158591947672
H         0.71560436787580   -0.21378879303163   -0.75489573718979

