31
CSD_code = POFWAL | q = 0 | S = 0 | Stoichiometry = C12H12Br2Cl2N2Zn | MND = 4
Br        4.74801715244653    3.59170237038687   13.82346752221254
Zn        2.68318961405335    3.06743677878618   12.86011185398331
Cl        4.91648914599105    5.35698475881774    6.86506410738165
N         3.47981592716431    1.62131464144873   11.23028243080385
H         4.29989431732450    1.12627814067624   11.57400572243781
H         2.78225312476801    0.94800615603814   10.92198587659836
C         3.84355999891691    2.48577272761803   10.14743299632672
C         5.10552077402443    3.06795649223202   10.11741750960980
H         5.82679494994901    2.84069135639388   10.88888435600350
C         5.43554263112640    3.95478387049448    9.10978784274604
H         6.41199161397718    4.41100498527958    9.08858196857609
C         4.50274483985413    4.25502079306957    8.12911056005472
C         3.24272653848353    3.67749055641972    8.15039170978362
H         2.52081566206818    3.91982769113100    7.38753497258471
C         2.91559051982411    2.79068661293547    9.15882610862955
H         1.92956235902020    2.35074740526882    9.18569710203287
Br        0.61862621462103    3.59291295665248   11.89686392702474
Cl        0.44872396173302    5.35697906334418   18.85472069216053
N         1.88598574584078    1.62133433119007   14.48967266215018
H         1.06594721576612    1.12633059931867   14.14581209186484
H         2.58348052635229    0.94800039439493   14.79807070049704
C         1.52209365584259    2.48578689932556   15.57247817774602
C         0.26011837199722    3.06794580562519   15.60234663272945
H        -0.46105312310293    2.84068274970877   14.83078525227894
C        -0.07003914810502    3.95476679578542   16.60993639430428
H        -1.04649704852617    4.41097211146307   16.63102209574852
C         0.86263706144352    4.25502057137519   17.59072400651813
C         2.12266812515477    3.67751137055065   17.56959343377023
H         2.84448160018470    3.91985643096289   18.33254057432619
C         2.44994115826009    2.79071384328344   16.56119738778272
H         3.43597651354567    2.35078074002241   16.53445333133252

