159
CSD_code = POFXAK | q = 1 | S = 0 | Stoichiometry = C71H81N2O2PdSi2(1+) | MND = 5
C         7.00125407776572   -1.24493261761423   14.13345907112238
C         6.41185177251852   -2.42117796568592   13.64301531252599
C         7.24467397714025   -3.45268578003246   13.22871918654837
H         6.80644238763980   -4.35811104168581   12.84159844094694
C         8.61820497491036   -3.35004062181278   13.31506152108824
H         9.24385866620555   -4.17231168647165   13.00495795906781
C         9.18995691727865   -2.19050883783698   13.80567944466320
H        10.26232477571051   -2.12095783575234   13.88142318196682
C         8.40309928467884   -1.12290752482399   14.20913702839040
C         4.91820454299285   -2.57694600800877   13.48048864994352
H         4.41154041220656   -1.71417128833232   13.91892932053405
C         4.39534657884981   -3.84345264946039   14.16349310902601
H         4.73573536201077   -4.73538346086959   13.64561889449828
H         3.30810382986711   -3.84288963705896   14.14685965707598
H         4.72665377805011   -3.90698503028446   15.19755119684577
C         4.57426305133819   -2.59649556040791   11.98976247260520
H         5.03360285769214   -3.44974477660306   11.49762450973423
H         4.92654870321430   -1.68227907161291   11.52207758135815
H         3.49736479145552   -2.65672670555954   11.85436870072208
C         9.03877659001529    0.11668841402194   14.80071753711911
H         8.36438912390599    0.98486754526925   14.61992870801606
C        10.39722984944745    0.45132392634879   14.18103176083859
H        11.17128808308895   -0.22025118377868   14.54288652407134
H        10.68509018455057    1.46418949359576   14.45485855811303
H        10.35944448301197    0.38472694248954   13.09574756369079
C         9.18617368914452   -0.06988547878735   16.31538857217032
H         8.21442889357803   -0.15050477140119   16.79802990794712
H         9.71991489513149    0.77199411955751   16.74790429162259
H         9.75017582955695   -0.97614871629318   16.52557847217683
C         5.52344111421572   -0.15127010763237   15.61981503884003
C         5.40554778971278   -1.32179420534535   16.54139913657209
H         6.12641477339653   -2.09071706641522   16.27391148757983
H         4.40576969035515   -1.75028730643451   16.48458082213466
H         5.57448365333559   -1.01555658249625   17.57202288692762
C         4.88416341713380    1.11271542206977   16.01802327323851
C         3.86925146285694    1.11939571522513   17.11641587147554
H         3.35576666424596    2.07823859991923   17.14518188099776
H         4.33693834121954    0.95917864027390   18.08738925060223
H         3.14243857847484    0.32338194919581   16.96875267266115
C         4.94967697164672    3.47057750119375   15.85128958320306
C         5.55558849084230    3.96688261196276   17.02182845965789
C         5.22799262172936    5.24754217900376   17.43692804035826
H         5.68225546350900    5.65332175167055   18.32482124420704
C         4.32115543809431    6.01879923327631   16.73292406430987
H         4.06143100340773    7.00323293442911   17.08894728192210
C         3.76845767522655    5.53693993966023   15.56362734911786
H         3.08197964740889    6.15419223251077   15.00833164649818
C         4.08368007683819    4.26964300260416   15.09223690013065
C         6.64326806879484    3.17455806383421   17.71557918310869
H         6.38576035421176    2.11050241773380   17.70317969852467
C         7.93606797720743    3.35089444132457   16.90946442677132
H         8.17599290389674    4.40716019368403   16.81234267711368
H         7.81806127801485    2.92264645621871   15.90752798678569
H         8.76142812708368    2.85241898986569   17.41048922390817
C         6.86464869404689    3.57348098751130   19.17296110733006
H         7.32989697200950    4.55228260672975   19.24782200303131
H         7.52775227444286    2.85495640217988   19.64959839291461
H         5.92482224638014    3.58650723909623   19.71988874859059
C         3.47557796619512    3.76059031848621   13.80448707643366
H         4.08898993877939    2.92014083840557   13.42299701532865
C         2.05807600917530    3.24784586456131   14.07089320291353
H         2.06050297916183    2.45329403875917   14.81282996684603
H         1.62144705217715    2.85859160503023   13.15508678547513
H         1.43135696431579    4.05723843697343   14.43892387994869
C         3.43902662792895    4.83619125905390   12.71673298624561
H         2.67834832546437    5.58348719498565   12.92501024237516
H         3.20054262948978    4.37818544076486   11.76042986904808
H         4.39871706694390    5.33994625947205   12.62580145298952
C         7.09069197550029    3.78058609916803   13.22031224397895
H         6.51791098347595    4.67943764026993   13.42053140871944
H         8.09576764653820    3.77137011307442   13.64797381602058
C         6.85439146167425    3.05663974560881   12.05110573655092
H         6.01246329367311    3.30846544785902   11.40990515933364
C         7.51264884841026    1.82596072875626   11.88656230297166
H         8.56042456566716    1.73656874560307   12.16941846458833
C         7.01264547788776    0.91982312132259   10.79354825027138
H         7.10498016869384    1.41917393854807    9.82152246589586
C         7.76563101793119   -0.40768546824336   10.70708530320311
H         7.84589719151692   -0.85851014801989   11.69549288029675
H         7.19574725769775   -1.07572921377813   10.06200414989677
C         9.15891849887637   -0.23017624147765   10.09392154085734
H         9.75356418233579    0.43471040311083   10.73531777504241
C         9.87747916094025   -1.56835332525555    9.96069291292031
H         9.32278321775153   -2.21712107663292    9.28823336307261
H         9.96111747455929   -2.04824540537818   10.93194945903092
H        10.87109566419925   -1.41143876314350    9.54921507143861
C         9.90956666467427    2.97716107936456    9.66555663681696
C         9.06833072385191    4.06604357572435    9.87401993151405
H         8.26818182767103    4.25650899338514    9.17323332724593
C         9.24931123671649    4.91892484582345   10.94827267244915
H         8.59249217911571    5.76683382153394   11.08074747523588
C        10.27531920639677    4.69014879501452   11.84982544644000
H        10.42120756494941    5.35638637294769   12.68802113192211
C        11.12686105252710    3.61469142695559   11.65952890534321
H        11.93954507977258    3.43803650918185   12.34962100818890
C        10.94727282295814    2.77588720842868   10.57361243382081
H        11.63680315177730    1.95766153986738   10.41507550222271
C         8.32172986713250    2.37847929229695    7.05544730118311
C         8.49289007127968    3.60672126775851    6.42247806389824
H         9.39225146992863    4.17520990775827    6.61113204823427
C         7.53396293856262    4.10641107133202    5.56092356438726
H         7.68391713911331    5.06331279892586    5.08221444820424
C         6.38280275870388    3.37759942480863    5.30932281028272
H         5.63187382116415    3.76566168099752    4.63716288831260
C         6.20282663239187    2.14755100641356    5.91775190726150
H         5.31259814812616    1.56879629194657    5.72148871248433
C         7.16417528633073    1.65587810317064    6.78274193798608
H         7.01834577844832    0.69489891254666    7.25446178173648
C        11.31423008211483    1.43906260714078    7.40145558156774
C        12.26204605624819    2.45266470816347    7.27858954624758
H        12.04969405309734    3.42845201104699    7.69274466756058
C        13.46972862597582    2.22751463506921    6.64381456328162
H        14.19212078274147    3.02624890794053    6.55968827337106
C        13.75333733786340    0.97902543050727    6.11570129543298
H        14.69582009116325    0.80182380980602    5.61932008400604
C        12.82256694424548   -0.04045935779147    6.22573284242775
H        13.03807562466941   -1.01556989861403    5.81341848309580
C        11.61597381197179    0.19128821641750    6.86012627110471
H        10.88862855302716   -0.60362534937325    6.94061104535597
C         4.27184877494516   -0.13299350494097    8.53124222740177
C         4.86917479615117   -1.38560387191682    8.41328736500509
H         5.42059445470611   -1.79420459871114    9.24695015283290
C         4.76349020006086   -2.12778470489315    7.25104019729243
H         5.24336941348956   -3.09323341303115    7.18295185213769
C         4.03933433738288   -1.63765683989512    6.17818025534761
H         3.95430022608646   -2.21499056577018    5.27000001879654
C         3.42069523606772   -0.40306260650267    6.28049516921692
H         2.84607383364329   -0.01623581286441    5.45138225693739
C         3.54001585133086    0.33831511606636    7.44169540080148
H         3.06109958857468    1.30491886093642    7.50526140133289
C         4.08198217292235    2.71544261498472    9.52887515680959
C         5.10769616009208    3.45845393932414    8.94583991446933
H         6.09974496487363    3.03691254148683    8.87083913261931
C         4.88074241492236    4.72296537304176    8.43309167316178
H         5.69423475209634    5.27051027481195    7.98032306645386
C         3.61124253681582    5.27283732903304    8.48210420779698
H         3.42832960619051    6.25517716594866    8.07378995784732
C         2.57437082812347    4.55038320917371    9.04900174265977
H         1.57950945839609    4.96937943319090    9.08490658900882
C         2.81044852122119    3.28872773905216    9.56610667782284
H         1.99490111188812    2.72802188618841   10.00130730264216
C         2.98219037450087    0.40461805770118   11.31281164943618
C         1.73374532877686    0.01505613075752   10.83921677505274
H         1.54817559376445    0.02827703034649    9.77539547011936
C         0.73810830836630   -0.40036791389009   11.70504720336585
H        -0.22501822043020   -0.69879289464198   11.31897683857805
C         0.97977825121131   -0.44449116187647   13.06800475996888
H         0.20827245646031   -0.77882385927759   13.74550659599727
C         2.21724673323255   -0.05997061763057   13.55602352165138
H         2.40820446443456   -0.09840401153684   14.62039393762251
C         3.20212581982932    0.36888719199144   12.68521700371320
H         4.18364204694169    0.66642202053996   13.06022486982541
N         6.22987409844822   -0.14010348569378   14.54507075199962
N         5.29227248249319    2.17320914613532   15.41742209056467
O         9.01201504075584    0.35858422152147    8.83136973357507
O         5.64562844576922    0.69670391607351   11.08394693042356
Pd        6.38828731428160    1.83940244125066   13.68901198034519
Si        9.64684631205760    1.74718347710308    8.23719501845080
Si        4.34440074487689    0.92119706810577   10.10428830773686

