37
CSD_code = POFYAL | q = 0 | S = 0 | Stoichiometry = C12H14FeN4O6 | MND = 6
Fe        1.41011896022973    1.43767280341172    5.97876630558525
N         1.89925751491424    1.88865048650899    4.22089131571457
N         2.30901177282644    2.56553042126729    1.57024660585157
O         0.10490410287016    2.92965661009790    5.69399901962711
O        -0.55110666710672    4.41428148596867    4.15899346465681
O         2.75755589498294    3.02386624680132    6.86709792801342
H         3.62048833627925    3.15045328179287    6.46230225473219
H         2.25932484864494    3.84458703860492    6.77611489722505
C         0.12584257966003    3.48115208654808    4.54616898677705
C         1.16918702420648    2.84601852262480    3.62820883356118
C         1.38797636416677    3.17406911946243    2.29857729178010
H         0.80219517504542    3.94731750790930    1.82291523052047
C         2.82188748880151    1.27134639372930    3.48880283744895
H         3.38805850015118    0.50527325669562    3.99503681731669
C         3.02830391892695    1.60927128463620    2.15164162957487
C         4.04817633965745    0.90887933188058    1.31774382297769
H         3.59931880292369    0.02839317681887    0.85911126225012
H         4.89041130409853    0.58660491108448    1.92359381605195
H         4.38543858593842    1.56718716350937    0.52228414392165
N         0.92119102009457    0.98649906155079    7.73678089516769
N         0.51295011317544    0.31000554219477   10.38776779723403
O         2.71515566539076   -0.05437685893493    6.26309732081318
O         3.37015661295324   -1.54052068948081    7.79710647678335
O         0.06053120771768   -0.14685247333380    5.09112710622789
H        -0.80323734410566   -0.26988348717230    5.49521584964342
H         0.55539156217456   -0.96949550918685    5.18283720713245
C         2.69387754822351   -0.60665192254034    7.41050615291790
C         1.65101286711466    0.02863092597318    8.32894925701262
C         1.43295263129988   -0.29926048670102    9.65873926407698
H         2.01847491716242   -1.07298975612791   10.13393001460128
C        -0.00042388557849    1.60450987698710    8.46957113038603
H        -0.56652013811369    2.37092045389986    7.96375111834766
C        -0.20599829414993    1.26685485306742    9.80692210900085
C        -1.22450222653769    1.96821399295754   10.64168257894352
H        -0.77448713188421    2.84841664786365   11.09973026899690
H        -2.06707486931016    2.29106661983908   10.03660963694831
H        -1.56150110284392    1.31030207979225   11.43757935217869

