66
CSD_code = POFZOA | q = 0 | S = 0 | Stoichiometry = C17H36B9N3Zr | MND = 8
Zr        6.72660917130662    6.86443639686743    2.79335457572380
N         8.64248061473223    6.31989679796928    3.34224782042006
N         6.65631545018586    8.87344970282167    3.29671964356171
N         7.94065371136390    7.79580419677195    0.76968816787832
H         8.33384726896240    6.93996086560682    0.36697229858914
C         4.99172405670752    5.48954042275914    3.86661101133012
C         4.26070664454804    6.59638995669055    3.05340291589059
H         3.96157497004225    7.50000297561497    3.59007530596259
C         5.50104943719072    5.88448234437514    5.18513943678120
C         6.14001761079796    5.00351867050553    6.18310093533101
C         6.40793882785829    3.64077887993528    6.18378952997524
H         6.13968402593922    3.01802719576630    5.34804349619396
C         7.03659835296149    3.07922082464698    7.28371691106688
H         7.24910544510339    2.02003547832814    7.28697062994102
C         7.39781015721838    3.84940702697332    8.37795950669483
H         7.88714249557332    3.38848883408385    9.22334059088077
C         7.13116082039115    5.21019463653450    8.39161767126141
H         7.40786065580849    5.81717330935821    9.24197650307172
C         6.50631464518911    5.77364497989095    7.29997818990333
C         6.11679499525254    7.19918764069034    7.07372223668025
H         6.97140657177684    7.87975638028110    7.15005758704654
H         5.38031188011408    7.53152648519248    7.81386777342216
C         5.52739704972878    7.15284280315650    5.69340257242738
H         5.07777664539657    8.04300354007653    5.27632164193503
C         8.95109911442003    6.16399942778818    4.74962634176055
H        10.01800667535196    6.38323516079299    4.95200100724845
H         8.77466830376980    5.12863113367911    5.10855785309816
H         8.34838641319829    6.84647625895558    5.35622606220158
C         9.44027394335709    5.36495387176812    2.59488510491597
H        10.51581022087082    5.62551166325186    2.63125643419437
H         9.13022497524106    5.32380014410061    1.54552322155002
H         9.35563194551785    4.34190097162064    3.00794771994243
C         7.61714996193698    9.49586034365543    4.18461095521347
H         7.98851132168116   10.45611804468114    3.77312818938598
H         8.47808475069821    8.84039045683556    4.33876093251517
H         7.17546093629272    9.74419157315628    5.17260971484533
C         5.63680862117934    9.84686497156743    2.96743233113260
H         6.07645885351603   10.75611242023383    2.50893617058391
H         5.08689250557844   10.20082265305865    3.86492597241414
H         4.91073495648038    9.43398147200418    2.26248430862182
C         9.05867357259823    8.63318539086604    1.20971337877084
H         9.75258572790275    8.86001608173830    0.38718149365673
H         9.59125500436807    8.11882155124293    2.01117092197488
H         8.66077897204624    9.57144760461851    1.59577177078784
C         7.18643879749921    8.46389948473860   -0.29192023574160
H         7.84091713190135    8.79511299491677   -1.11105958696745
H         6.68665179378774    9.33964986555880    0.12529541331001
H         6.43715932846083    7.78189400653779   -0.69381301118397
B         4.72682220681653    6.62039061212667    1.47709511909621
H         4.66614670483191    7.66209774337049    0.88456089730978
B         5.84899482844123    5.28601507751951    1.27366383388006
H         6.67927164170514    5.20110280365472    0.39537689700507
B         5.99828075517813    4.58774138363542    2.86447494231195
H         6.94783957087027    4.06323496883701    3.36677608096371
B         3.29275177463843    5.24441275581971    3.52700038771808
H         2.53978272973230    5.39446858229546    4.41999839971576
B         3.11943961477246    5.96836883587406    1.92462888804908
H         2.15045832869292    6.60541610036630    1.70679152740154
B         4.12984296962659    5.08086131608702    0.78603013155976
H         3.82060629173701    4.97581189034727   -0.34989144577090
B         4.93687997874650    3.78791700492650    1.68573022565424
H         5.21674980670857    2.74393401829459    1.20937392838484
B         4.43713025536815    3.91158606633922    3.38269890303659
H         4.36141159087081    3.04312078442604    4.17461473861024
B         3.24707444574272    4.21974948068630    2.10941865967205
H         2.34637117366327    3.48872268323381    1.90442846918299

