43
CSD_code = POGGOI | q = 0 | S = 0 | Stoichiometry = C14H14N6NiO8 | MND = 6
Ni        5.58342550408567    3.10626933887223    6.44399897911232
N         5.06361632674379    4.46265100140966    5.30174652434180
N         4.51261153811336    1.86140221024211    4.17459282337851
N         2.99724569058458    3.10548571906250    7.89766392851144
O         4.89052115741954    1.71858452509707    5.36952426775875
O         3.07370162418944    3.42665985002114    6.69824003105246
O         1.92992607258206    3.04258313416356    8.46459655599139
O         4.05954312983937    2.86672232117893    8.50091304736428
C         5.26997017191837    5.69628262981324    5.78415661823830
C         4.91052910417256    6.83337443255058    5.06951153579339
H         5.09177370186898    7.81555041539699    5.47276196088550
C         4.31502149974208    6.68034171292342    3.82658865670293
H         4.02226951187425    7.54496719296555    3.25111816052244
C         4.10515908483330    5.40838001288323    3.33920704584651
H         3.63990497702216    5.25441259725572    2.37882759642193
C         4.49616265551687    4.29680011992797    4.10200731528395
C         4.29608810054469    2.98389232306535    3.55509503157572
H         3.95192019121436    2.92671025076831    2.53481007534980
C         4.35404140132221    0.60755181941337    3.46081251010031
H         3.70587932646259    0.71566866584822    2.59586155602545
H         3.94608911860094   -0.12987216976638    4.15130891164963
H         5.34225779091115    0.27024504328514    3.14299582472264
N         6.10309780642028    4.46265034301627    7.58626338595177
N         6.65443160396916    1.86137311983614    8.71309556104262
N         8.17050852247354    3.10630022913610    4.99260109252567
O         6.27664571253045    1.71868675713996    7.51808780803312
O         8.09370835688800    3.42779843014336    6.19187206181808
O         9.23797845810844    3.04338445262949    4.42592855339489
O         7.10839630113565    2.86716124200833    4.38914769023351
C         5.89687349747790    5.69627690553885    7.10380237086661
C         6.25671764521945    6.83334732312381    7.81827005659924
H         6.07558849993250    7.81552823456406    7.41497930537585
C         6.85251825577780    6.68026938691104    9.06104248908632
H         7.14569412182211    7.54487520130999    9.63632765492275
C         7.06226155623786    5.40829882404799    9.54845915251428
H         7.52780232416330    5.25430620030193   10.50869184752522
C         6.67085397743275    4.29674664159877    8.78584917700099
C         6.87087863765375    2.98380237771140    9.33270588637465
H         7.21494165957054    2.92654232436947   10.35302120237293
C         6.81274549072437    0.60742042722292    9.42672167410118
H         7.46046064193845    0.71541756854109   10.29201645174410
H         7.22106325027926   -0.12987143058847    8.73629124292323
H         5.82437600068197    0.27002229505968    9.74398637896491

