29
CSD_code = POGHEY | q = 0 | S = 0 | Stoichiometry = C13H11MnO4 | MND = 9
Mn        6.56959968431277    0.76726357296263    8.36281986914563
C         4.46563160626252    1.23721089365410    8.05345217157401
C         5.28220955739229    2.04031184215994    7.21413931596264
C         5.95730755483426    1.17085990499415    6.31387784239672
C         5.57608557652933   -0.15208967946764    6.62061716333594
C         4.62913809583799   -0.11921971003078    7.67810545628299
C         3.79213393254077   -1.26822905264822    8.13969194321627
C         8.21802633204975    1.23685756521265    7.86486726771848
O         9.25329273065245    1.56448844803494    7.50108730861091
C         6.76395520099836    1.77919214200686    9.80948419554016
O         6.86838905547174    2.40640784877552   10.76668799680989
O         9.78938895662433   -1.78024821817652    9.05699339964417
C         8.90388626008104   -1.07848001246656    9.47361187620994
C         7.51841641421839   -1.11315363235641    8.98410657141075
C         6.48826417718628   -0.63143319073344    9.80686724476569
C         5.79048018669892   -1.01196984553650   10.86758132153173
C         6.03062803986639   -2.31287870390085   11.49987358968388
O         5.38921400079606   -2.74969866579654   12.41738200314691
H         3.71933358855765    1.60706986429321    8.74284922707765
H         5.24259013335489    3.11954648403735    7.13884992935369
H         6.54258895585151    1.47841139168586    5.45783228707628
H         5.82757793144016   -1.02683861895299    6.03646144885851
H         3.43649582960935   -1.11817720494825    9.15705172028345
H         2.92144489724819   -1.35679875085329    7.48624713425205
H         4.34031858965055   -2.20814122126845    8.09664551528574
H         9.06639076467579   -0.35771766762087   10.30520236031499
H         7.32382014484602   -1.93129672712818    8.28633597074733
H         5.01421650359976   -0.40497751122060   11.31345058151173
H         6.86877529881277   -2.87417154471078   11.04402728825238

