28
CSD_code = POGJEA | q = 0 | S = 0 | Stoichiometry = C11H9Cl2N2O3Re | MND = 6
Re        1.43414375527708    8.98104671894007    2.52875848641533
Cl        1.73160317051259   11.21335657904753    2.66094974636017
Cl       -0.45178546219290    9.13510679787433    3.75714928279573
O         0.81005030493493    8.83070409896719    0.99966821708194
O         2.54364460737652    8.63087187755487    4.07393382224653
O         4.22543693220636    7.33756928403124    4.96777640006592
N         1.49316636681696    6.74459707936994    2.77197855206097
N         3.52676220607876    8.68169735292162    1.75188329186889
C         2.58173330663791    6.38906031677406    3.44201054123755
C         2.89821323370521    5.07203482272972    3.71203139989622
C         2.01603837379239    4.09613532826642    3.27040400592660
C         0.87861710494134    4.47529239239639    2.57155337451701
C         0.65054761398086    5.82150628446118    2.33683613764097
C         3.40843143048225    7.61748371263076    3.87026920544457
C         4.23354160312362    7.96491089909804    2.61616416636575
C         5.54744635395802    7.60329814844519    2.39168305894546
C         6.13952170301782    8.03423249509413    1.21295019006313
C         5.39434218474937    8.78350263806007    0.31338661655664
C         4.07783438617994    9.08779976853496    0.61932481652512
H         3.97578539367819    7.94995815869094    5.67237313459601
H         3.79158573741837    4.83995827813509    4.26824922180825
H         2.21313354446921    3.05495222661815    3.47550735459122
H         0.17307845863767    3.74063765990028    2.21902500615217
H        -0.21393157760566    6.18812101817426    1.80330819615582
H         6.07778755035943    7.02808461440542    3.13275197957721
H         7.17056126431156    7.79232209177159    1.00476238990649
H         5.82735482424502    9.13483633703825   -0.60907435906232
H         3.44115562890754    9.66872302006833   -0.03151423573990

