113
CSD_code = POGMIH | q = 0 | S = 0 | Stoichiometry = C40H66MoO4P2 | MND = 6
Mo       -1.81111431870261    4.02010927868892    2.94821455475855
P        -3.02454980142320    2.10683956255025    4.06645287319145
P        -0.68008427539347    5.29000717386201    4.81722072382197
C        -1.09082980677227    5.40442408507662    1.80213385436891
O        -0.77117253533608    6.17501500303004    1.01474461799762
C        -2.45422747500868    3.24062962024554    1.29667069345224
O        -2.72307744618173    2.86890210024804    0.24522369937010
C        -3.43051396307393    5.11305179848629    2.99879491902770
O        -4.35041970385540    5.77749357628798    2.82935961881635
C        -0.18472962053503    2.98380508432227    2.63108919980964
O         0.75008282743804    2.43544340140686    2.25451148010821
C        -3.73344578984590    2.30213045353889    5.80536213023932
C        -5.03539769784466    3.10334046077632    5.75974441230969
C        -5.45653983455451    3.53844207053681    7.16066919710502
C        -5.65334092422186    2.31424151372889    8.04840701212905
C        -4.37458030936799    1.48505824141722    8.08368965952055
C        -3.94937961232410    1.06146296282776    6.67609261990063
C        -2.05145698413543    0.51774369290951    4.24473407478934
C        -1.64099993686717   -0.07909355592952    2.89795088098318
C        -0.75704118217754   -1.31119515853806    3.08858104758334
C         0.47520853070252   -0.98116268405297    3.92107570570265
C         0.04496064995206   -0.44247785229850    5.27969756590566
C        -0.81642052557377    0.80262512006226    5.09554930933295
C        -4.41662884376737    1.46520281359262    2.98187976629690
C        -5.39522355386730    2.52272750862313    2.46787705890053
C        -6.22365120408316    1.94222480304487    1.32258494199704
C        -6.99866912645850    0.71457899774303    1.78953435949984
C        -6.04306718483503   -0.32975652143136    2.35648416359820
C        -5.21056626148947    0.26088560970812    3.49468131535650
C        -0.06390982018225    4.39070533605365    6.35872119480723
C         1.24726272637658    3.66277410020769    6.05862633380527
C         1.59736212179782    2.68713358938333    7.17880624781601
C         1.73308367849088    3.43816069366494    8.49903743412643
C         0.44528408912345    4.19541568085544    8.80259857824190
C         0.09131360209396    5.16324421191859    7.67142654777955
C        -1.67940598971892    6.67741768494241    5.57887503416315
C        -2.95422624095358    6.08265041655224    6.17174349560783
C        -3.83743886512565    7.15243634120151    6.80541144920568
C        -4.20210073288630    8.20580842227185    5.76689506756545
C        -2.93191216001873    8.83383602870982    5.20768827361805
C        -2.02553571173342    7.77813535893201    4.57535673817495
C         0.76170561258818    6.30290409959375    4.16805544710704
C         1.77657972567900    5.53691101586371    3.31744120168681
C         2.66107553614643    6.52507528717125    2.55842118512862
C         3.39756438792845    7.44185534318993    3.52943661412100
C         2.40243674160374    8.17389127693920    4.42336887212410
C         1.51529354730566    7.17903570613574    5.17209484077877
H        -2.97767055365760    2.93075106395515    6.30135094111977
H        -4.91857265719275    3.97415744052622    5.11051038490914
H        -5.82936995347829    2.47941396859100    5.34824060594411
H        -6.38308518068137    4.11397701732398    7.10471650304897
H        -4.68921727218010    4.18088380375433    7.59641119578270
H        -6.47045260117853    1.70504715207420    7.65472555060065
H        -5.92548368541200    2.62286835813603    9.05983830908453
H        -4.52420085430873    0.59555280393694    8.69990292774799
H        -3.57559431318525    2.07506619601276    8.54071568181928
H        -3.03769478400937    0.47026689912320    6.76183988668473
H        -4.72577659692761    0.42756444219956    6.24728595734884
H        -2.67864809437978   -0.21465611895381    4.76601545157342
H        -2.52154198034810   -0.38200520607077    2.32963027711336
H        -1.10405617163776    0.66861356009989    2.30974136201696
H        -0.45744182045969   -1.69393629491976    2.11095875790018
H        -1.33238278524646   -2.09396418475685    3.59124667857025
H         1.09283375249900   -1.87281507629507    4.04643806351557
H         1.07175115988836   -0.22711676567787    3.40390794514262
H        -0.52387520551083   -1.20985589581982    5.81255114003160
H         0.92283869824436   -0.19822703631949    5.88173323966529
H        -0.22540601625823    1.57435489896099    4.59926295415963
H        -1.11748761369985    1.19231342291224    6.07108323967129
H        -3.84803341237519    1.14051861882226    2.09785763271919
H        -4.84709268784310    3.39132283006135    2.10203194046309
H        -6.07127794916859    2.85286096559831    3.25634589701395
H        -5.55967959145486    1.66599152876516    0.50031443202172
H        -6.91544894071608    2.70080157578822    0.95104814346751
H        -7.56383043211021    0.28953044505811    0.95776823623892
H        -7.71349170943454    1.00945347429628    2.56205661569545
H        -6.60604452469445   -1.19169717416737    2.72277610656899
H        -5.37728636391904   -0.67911264970531    1.56356383456822
H        -4.54955767594660   -0.51320739865873    3.88587317844051
H        -5.88643108729592    0.56916549143699    4.29407249949043
H        -0.83833726336818    3.62322829669286    6.51245687937339
H         1.17494121398043    3.13569416732315    5.10447331793413
H         2.05538440945699    4.39080628507562    5.98182405324140
H         2.53175454019570    2.17381606017167    6.94158437662351
H         0.81479423677964    1.93190790518921    7.27171183024973
H         2.56333789434943    4.14537143419165    8.43332296258140
H         1.95417864855902    2.73932050759411    9.30838423850803
H        -0.37048952563706    3.47959934470118    8.93480196984621
H         0.55206541594909    4.75286259537049    9.73596555564480
H        -0.83015154391393    5.67818759192260    7.94301794199260
H         0.88242340869245    5.90796896973749    7.58203115657338
H        -1.08892511478449    7.12507812197053    6.38662837119579
H        -3.50990313514620    5.58968898667218    5.37209952030235
H        -2.70072954434132    5.32334941530603    6.91560230845627
H        -3.30543615345761    7.62711743483889    7.63488188873462
H        -4.74279214757498    6.69291922518050    7.20783936004695
H        -4.83467505687875    8.97484815957281    6.21481228747885
H        -4.76317515398738    7.73716061385866    4.95604418504374
H        -2.39219841597614    9.33572108000991    6.01591438627668
H        -3.18465436412360    9.58660020330673    4.45838868042947
H        -2.52277690455428    7.34316304838624    3.70536620491850
H        -1.11993421689726    8.27728223393069    4.22767460583332
H         0.23851868263589    6.97012558687086    3.46714200752815
H         2.41145699417291    4.90192163740893    3.93506916638936
H         1.25707785683686    4.90375472756125    2.59774349894116
H         3.37947001742396    5.97637631871750    1.94611568009100
H         2.04069272338498    7.12375247119771    1.88758876437673
H         4.00291583289584    8.16339741731364    2.97732767318585
H         4.07222912637147    6.84604002267196    4.14957098987437
H         2.93627359814611    8.80163597278020    5.14099381582427
H         1.77729446455447    8.82698376991830    3.80961979185573
H         2.15009347850912    6.56035645523517    5.80857778577315
H         0.82672856289806    7.73269202920693    5.81129316301691

