107
CSD_code = POGMAB | q = 0 | S = 0 | Stoichiometry = C48H42Cl2FeN8O6 | MND = 4
Fe        9.86023592958423    7.06265705068450   13.37989467376367
Cl        9.20099207501475    5.97305106642819   11.70062517587760
Cl       10.92925061714470    7.52119275346966   15.13657366328259
O        10.66495991945573    1.21554509371094   12.93998278181869
O        15.45506661175694    3.78094980648264    7.77894314538535
O        16.19048905499559    2.11140941864000    8.91372452737730
O        13.38255639135468    3.00918116640717   14.05540216288523
O         8.27541747399401    1.67034007820146   19.34810163778415
O         9.10651859627950   -0.09285124726839   18.44881173027285
N        10.07133359073414    8.72809665092745   12.56439414020306
N         8.21893796143698    7.79056909849461   13.86338236678773
N         9.20477769529012    2.91090634366704   13.42793304404518
H         8.97558725928831    3.87463092595753   13.20687969808485
N        10.76956961873029    3.21851977711206   11.82043023855863
H        10.23370457572025    4.06689451151137   11.63443516948505
N        15.35027845903451    2.95618806227958    8.67090718730143
N        13.07058681908059    5.13078762715504   13.26391656572893
H        12.47102822184749    5.94940461657920   13.33165502778334
N        11.73283029546958    4.35473290382409   14.92498955716151
H        11.49353601416861    5.33906570413842   15.05278278138468
N         8.99744721676641    1.11533556146331   18.53852179272589
C        11.14971389612371    9.07788842551387   11.83608615949581
C        11.25886392840677   10.33293068654071   11.24002513934727
H        12.13780983117186   10.56430922152022   10.66052838432438
C        10.23833812790311   11.25302225364620   11.41573387733918
H        10.30300690619529   12.23090106592807   10.96572149425210
C         9.13763036954432   10.90345413987582   12.17996579706142
H         8.33112250555976   11.59985289477900   12.33789006526415
C         9.07732123062570    9.63214837423908   12.74219612722211
C         7.99853351863213    9.08940914294779   13.54370260661741
C         6.85453466326550    9.76082601224856   13.96261884874038
H         6.71048883114143   10.79537001035552   13.69939943203116
C         5.91645910221000    9.08457122598450   14.72477447282625
H         5.02912970911607    9.58866497125229   15.07327903362143
C         6.12362479072063    7.74752454229711   15.02014292623952
H         5.40920342496767    7.17535888832106   15.58939798037369
C         7.28088114947138    7.12042251189095   14.55882997585423
C         7.49144381317138    5.74291281433976   14.76733299511624
C         7.49828297949296    4.53786737842260   14.91200249822417
C         7.49456119836872    3.14570379811439   15.09512460283033
C         8.37673895756378    2.31845254981751   14.37419854384843
C         8.34946084204538    0.95455103961051   14.63401959589888
H         9.03255013493078    0.30683875737986   14.11173281630916
C         7.44906669217686    0.42610214423244   15.54006550997358
H         7.46713507635623   -0.63844400830153   15.70018220065110
C         6.53352853118940    1.22241652902227   16.22938287474404
C         6.58387819721821    2.58710621132241   15.99604134362874
H         5.91333500419482    3.26099017194270   16.50479953248641
C         5.46157072619084    0.62732919232473   17.12894140160357
C         5.83095272326657   -0.77996934968748   17.60886517094264
H         5.10110897502104   -1.11700561105283   18.34136260294958
H         6.81074365221975   -0.79001549023861   18.07961833922620
H         5.82667991981725   -1.49383655763508   16.78884628400817
C         4.17243656304058    0.54675239166919   16.29480626978771
H         3.86336779337444    1.53658089472750   15.96540353088550
H         3.37078993899672    0.11291484382299   16.88804215863727
H         4.32636778818863   -0.07356097826007   15.41420051514283
C         5.21057809509182    1.50392195639653   18.36200339597298
H         4.78772672007014    2.46857167978269   18.09441821797651
H         6.13274526009488    1.66710111384399   18.91457475014673
H         4.50339701729453    1.00845923224696   19.02305799032800
C        10.25248628603615    2.33259660782702   12.74491579490123
C        11.90471001626469    3.08353834257006   11.05081861172263
C        12.15791185991095    4.09538933887602   10.11317812976012
H        11.45706557768004    4.91142904497180   10.01800645933493
C        13.28067093991486    4.04956145790826    9.32537526830051
H        13.48810418795475    4.81704962696070    8.59611699858264
C        14.17873710109607    2.99505109383446    9.47718906470696
C        13.94184641425346    1.98956378844442   10.41169798493903
H        14.65635200757123    1.18718100799133   10.50945487028665
C        12.80801979214430    2.02518236883147   11.18959192758723
H        12.61232817172265    1.25283485194833   11.91305929161392
C        12.17332550812243    8.11597541868853   11.73367499610535
C        13.11543884669079    7.35671894249011   11.64451744918076
C        14.18719925781260    6.45067556782860   11.60291091350813
C        14.15507310846821    5.29467988239282   12.40521442251288
C        15.22466093961668    4.41294042034356   12.32512246167230
H        15.20817384920220    3.50856539943552   12.90901494052182
C        16.31215057085585    4.70579464463215   11.52497403126776
H        17.12951412888362    4.00215163553702   11.51111544321946
C        16.38942710356259    5.87455690299986   10.76331039795867
C        15.29648000592172    6.72302146858348   10.79735253774671
H        15.27353803074106    7.62978842972065   10.21589056128258
C        17.66685619659741    6.20858845661491   10.01052324434057
C        17.53318624608238    7.47983522185269    9.16765718418191
H        16.73817708794603    7.37451301060900    8.43313786415342
H        18.46316909647542    7.65411528550489    8.63131611291866
H        17.33881833491304    8.35111941536133    9.78967939483459
C        18.77172481855748    6.42969964418773   11.05587947366246
H        18.94821392080001    5.52780822879290   11.63567939368929
H        18.49340661968166    7.22830302920084   11.74125289367724
H        19.70054626737447    6.70639049523926   10.56242815228165
C        18.06676487129070    5.06306851841155    9.07447304306704
H        18.18555449082504    4.12357736333796    9.60648497058856
H        19.01291185320359    5.29606258146300    8.59128464463134
H        17.31599691548801    4.92761573217270    8.29996459486875
C        12.79528606661040    4.06172913643949   14.08380242293562
C        11.12566436348809    3.50934957817604   15.83722368454566
C        11.35593701442945    2.13098478330307   15.87739093126896
H        12.06693119214686    1.68666148653372   15.20259685795593
C        10.65650866236367    1.34762020585339   16.76670159153131
H        10.80912033059604    0.28044183769078   16.80118597463315
C         9.73813479203084    1.92982611726625   17.63613963634089
C         9.52146725841830    3.30586333546863   17.62252294326503
H         8.81012237096984    3.73518103283928   18.31065849936216
C        10.20853423371800    4.08666200516715   16.72584525071632
H        10.04364031046504    5.15363521424164   16.69716615397270

