57
CSD_code = POGMOO | q = 0 | S = 0 | Stoichiometry = C18H24N10NiO2S2 | MND = 6
Ni        1.60237869145081    7.59383691029697   13.50127298189202
S         4.72642458993077    8.66309237796046   14.94746166836216
S        -1.52326059561306    6.53314725574378   12.05164073186767
O         5.48904843713721    7.59187553808640   12.65408603103557
O        -2.28268146427304    7.58358347732306   14.35571030777465
N         3.31649748108693    7.51473199561863   12.94708269795928
N         3.58693988458964    6.94971171923354   11.76471876719903
N         1.84062255196831    9.78367249420059   13.92551742142409
H         1.09748813740586   10.09446336696476   14.54688904133512
H         2.72870156371647    9.87031353459217   14.42373274503818
N         1.00901422633436    8.54462027611053   11.53878724292707
H         1.73700358834589    8.38807623729709   10.84590759272019
H         0.16792005954969    8.05254918767736   11.23333274678297
N        -0.11145865220404    7.67183513632149   14.05617962508855
N        -0.38011951356663    8.22535951322982   15.24439882119923
N         1.36237574463028    5.40387264480376   13.07668039065316
H         0.47428644292266    5.31664099144583   12.57882726597778
H         2.10548222848930    5.09455938218189   12.45448638221714
N         2.19740935559249    6.64153328519472   15.46263747672994
H         3.03893255079755    7.13272423559851   15.76803668614424
H         1.46970442716821    6.79930952847773   16.15556739212726
C         4.47136545168789    7.91016651598115   13.49815103439026
C         4.87220730927039    6.99763566116823   11.59605501828716
C         5.62006254326721    6.50659856789188   10.46967475166385
C         4.96657587854123    5.90149388889947    9.38930613996916
H         3.89009133869405    5.80062109641778    9.39436175620422
N         5.60039720861875    5.43361701947785    8.33624429412754
C         6.92006208788162    5.53958256233000    8.29471050363563
H         7.39130299288621    5.13905570126166    7.40729580320538
C         7.67094622006083    6.12086491802267    9.30767539186449
H         8.74492254190761    6.18467537852512    9.22876653371085
C         7.01151181012406    6.61474419459809   10.41760872315321
H         7.54785360677136    7.07602368754375   11.23368967293452
C         1.83671750842966   10.54417348498919   12.68064477215970
H         2.81709658778125   10.44084778066218   12.20814380917803
H         1.64126812415326   11.61204339698435   12.84316433536731
C         0.76737960790064    9.96994301959034   11.73337613874959
H        -0.21561531197943   10.09507922352007   12.19512502255164
H         0.78038406753570   10.53092782218152   10.78977273940758
C        -1.26652555464930    7.27633659661458   13.50562485729406
C        -1.66461444967263    8.17079619440789   15.41689451633900
C        -2.41046476319463    8.64653385699347   16.55117799490232
C        -1.75525552908378    9.23669709427577   17.63871370946443
H        -0.67887345118748    9.33863812780236   17.63298514252892
N        -2.38727111742710    9.68841002814403   18.69992504344262
C        -3.70669511805104    9.58028901476306   18.74287503132468
H        -4.17643455762528    9.96748737309801   19.63697909090295
C        -4.45924803953744    9.01327554808959   17.72304619172147
H        -5.53299318997795    8.94730441959149   17.80330860538322
C        -3.80171452061051    8.53627391866947   16.60465749122996
H        -4.33931184742803    8.08625315474244   15.78314029747923
C         1.36780211335485    4.64214812096760   14.32078399663640
H         1.56424435059107    3.57463512342515   14.15701165517783
H         0.38763500098794    4.74387854839456   14.79406356405274
C         2.43731697261143    5.21587973498629   15.26834222214831
H         2.42291465071269    4.65506331317246   16.21204373837964
H         3.42044974116314    5.08919682346280   14.80730639455739

