41
CSD_code = POGNUV | q = 0 | S = 0 | Stoichiometry = C15H17N5NiOS2 | MND = 4
C        -0.24715764977253    3.59909635175763    3.97633422862679
C         2.74878395799154    4.62875577217028    5.28514901831525
C         3.54385559133770    4.13878257401974    6.37672662914245
C        -0.01034846078126    0.20267005466679    7.47289581004458
H        -0.84375760810744    0.24476902327785    6.79751115602845
C         0.22034342916466   -0.69300629841791    8.51306112934837
H        -0.40527517136519   -1.50487025054472    8.81989979080819
C         1.42936513578345   -0.30412266680273    9.05859457174940
H         1.98939873312140   -0.71000493434334    9.87646361718511
C        -0.61211877723275    5.37236659677743    1.90963480451500
H        -0.56134830276897    6.16689686319765    2.65234689226977
H         0.39158335156413    5.04655508243838    1.64187395688485
C        -1.41553956880634    5.76455640914543    0.71565423627210
C        -1.19514737003175    5.14885851299546   -0.51081102824317
H        -0.42891530363582    4.39193894940699   -0.59626802650652
C        -1.95028379789480    5.49757652158168   -1.61546122525783
H        -1.76968947012924    5.01382672647653   -2.56399262148178
C        -2.93691495862135    6.46291768494805   -1.50541083984776
H        -3.52693217901893    6.73482823430398   -2.36795757376525
C        -3.16658994068284    7.07638074331257   -0.28567112158092
H        -3.93710166928508    7.82760957658857   -0.19436518222459
C        -2.41197672292136    6.72738247189778    0.81973748860304
H        -2.59571784869005    7.20375051812731    1.77194131938127
C         3.16248101935123    5.80045475563090    4.46174760040997
H         2.40687978810062    6.00040217734625    3.70745549269304
H         4.11628367459798    5.59841170340352    3.97695026948772
H         3.28682273950374    6.67720534196187    5.09506039475628
C         4.84393566623827    4.75977813204913    6.77748995185165
H         5.25302845872647    4.20296754344691    7.61723799385279
H         4.69849082665116    5.79721595350332    7.07451540345803
H         5.55302956415841    4.73392633038627    5.95173136281473
N         1.64104369373608    3.96665079419119    5.07455685571905
N         3.03521723277807    3.09994350002775    6.99398277994608
N         0.99834439927673    1.07402844798426    7.40015454534653
N         1.85846960141798    0.75100045147081    8.36682526286081
H         2.72493997464826    1.34616113340829    8.45509219380897
N         0.81725672307881    4.33524174371329    4.07593325694856
O         3.64543193090435    2.56245148805472    7.98847050322839
S        -0.57873716148288    2.27500479565218    5.02609841677801
S        -1.41449233241956    3.93091068236765    2.73899645271161
Ni        1.31805880152306    2.53353050841832    6.22621423305955

