42
CSD_code = POGNOP | q = 0 | S = 0 | Stoichiometry = C17H17N2O5V | MND = 5
C         0.00749630505991   10.03279631631541    7.53486672603814
H         0.46467106917409   10.81254083225148    8.16305712717176
H        -1.06998895436023   10.23030472689378    7.43184781188708
H         0.46937895552744   10.07016792579662    6.53366663106544
O         0.56646688781230    3.75123042076866   14.15518204354674
C         1.47362924119416    2.67750600576811   14.21333315776130
H         1.21746937646200    1.89441990371632   13.49206324387365
H         1.38978169595546    2.27676832850115   15.22221750912271
H         2.50210254224228    3.01035029925042   14.04109548270265
C         2.20285332586273    6.18650813599844    6.46775960454177
N         2.28844838550548    5.19858988483545    7.31916395982754
C         1.73510082911004    4.69832633730975    9.47242386255187
C         1.03859937577674    5.00270245628163   10.69895335283883
C         1.18824774139020    4.20301999017864   11.84535915607138
H         1.88673500920834    3.38420538378740   11.81564012646170
C         0.47542592362821    4.46563175430871   12.99840313923174
C        -0.42929055865159    5.53814858993695   13.02052590501365
H        -0.98221535965980    5.72184361606955   13.92792304153714
C        -0.59468369641266    6.33153744001082   11.91502554537947
H        -1.28181115194891    7.16510479891191   11.92654259949766
C         0.14018389522329    6.09915201830497   10.73891656226506
C         2.85387407988017    6.06921941050308    5.15426236344639
C         3.51135622536076    4.89805037142516    4.78151958792654
H         3.53816047505959    4.07336055931587    5.47526781879252
C         4.11320479382579    4.81029134382224    3.54108033761802
H         4.62188888286452    3.90221587360532    3.25252333690718
C         4.06789878491626    5.88456210974210    2.66530042555349
H         4.54074666206931    5.81191965255621    1.69691735790068
C         3.41813191365549    7.05216514805219    3.03260991091165
H         3.38544744144694    7.88933207497348    2.35091051245009
C         2.81264012449022    7.14677600944958    4.27112624783506
H         2.30551279615957    8.05120396979775    4.57533081938112
C         2.51150443641793    3.41764733681020    9.35104135110751
H         2.83551741484072    3.29736206360601    8.32112926092992
H         1.89905848261485    2.56799185919589    9.64500131959863
H         3.39012246280503    3.45830817447591    9.99287220059279
N         1.67823484489984    5.52564026430168    8.47067052384857
O         2.37879907926583    7.86549638411072    9.24806986228017
O         0.22367217783417    8.80151521213332    8.06961820721122
O         1.53892140859810    7.24328603185271    6.76452209534155
O        -0.02226855881430    6.86804770705009    9.69808567569472
V         1.07197523371077    7.50015327802258    8.54497419628472

