41
CSD_code = POGNIJ | q = 0 | S = 0 | Stoichiometry = C17H17N2O4V | MND = 5
C        -1.46267984181777   17.04145040719392   11.02644715895412
H        -0.57192714838025   16.91424977927723   11.66035504571626
H        -1.90646721716935   16.04865823325446   10.83862622305234
H        -2.20233938386914   17.66263037342547   11.55384948612883
C        -1.55226867153184   15.92269423955826    6.62441163456336
N        -1.03799369808403   16.70712779382567    5.71524161288825
C         0.16264825417771   18.63709569094657    5.55310594706579
C         0.72286398806096   19.82888867085643    6.14346518036501
C         1.54702216124277   20.70138413266039    5.41577730070858
H         1.81395335781447   20.44846987704188    4.40136742198027
C         2.04505845388955   21.86551143782646    5.96122024855169
C         1.70194778826256   22.19041542522769    7.27738864469345
H         2.08213066597236   23.10300659015739    7.71322369645446
C         0.89453667323719   21.36507272672828    8.02188503806075
H         0.63273633633122   21.60772481663400    9.04199332997329
C         0.40048840064899   20.16507771599279    7.48481242118682
C        -2.16261042756942   14.64707251435070    6.22024324964144
C        -2.27487155582391   14.29991030386735    4.87502281934750
H        -1.90398854874043   14.98409657484301    4.12902562556475
C        -2.85434112672145   13.09718314431617    4.51986653262083
H        -2.94214225905128   12.82871999791538    3.47737133436982
C        -3.32249960250168   12.23200702361483    5.49734796149088
H        -3.77382229734108   11.29216359655289    5.21510017314634
C        -3.20984030572257   12.57127709811065    6.83613704562541
H        -3.57218308672222   11.89543061403187    7.59680721210843
C        -2.63316257106374   13.77350596694705    7.19893642900002
H        -2.53271602372799   14.05220798780328    8.23811762511086
C         0.32112161565312   18.39074800378932    4.08002218866597
H        -0.27542427242418   17.52764319562657    3.79835184228669
H         1.36616890130377   18.18604396582818    3.85318473203853
H         0.00268719240301   19.26090163887176    3.50998092543873
C         2.93930670203752   22.77679110449815    5.17589700951978
H         3.91753658444109   22.84493825221596    5.64993730181399
H         2.51917407356928   23.78069315858649    5.13602436022751
H         3.07195209083415   22.41398357255780    4.16031133151997
O        -1.12487636494918   17.60018403058637    9.83385645616454
O        -1.54486277281047   16.26882375511591    7.85983396624396
O        -0.36068175509317   19.38644964322722    8.20144301688184
O         0.96692230229981   17.11568704589762    8.30645198668582
V        -0.45016591305237   17.68430726738015    8.35772081097099
N        -0.48439069801318   17.78697263285778    6.29403767317142

