81
CSD_code = POGPOQ | q = 1 | S = 0 | Stoichiometry = C27H49ClOP2Rh(1+) | MND = 5
Rh        2.91540232424888   17.66276456982749    2.04934567420486
P         3.88364084146307   18.32451684105863    0.05001781811259
P         2.34191609377963   16.64116537127158    4.04801289058652
Cl        1.77395650248928   19.51345484004969    2.38177115510196
O         7.17647114344316   13.46515137294876    1.86739165120571
C         2.32409530605548   15.96088033292608    1.10863186471451
C         3.66975300667990   15.54457076821498    1.46129895266394
C         4.72563177037079   15.71933525997544    0.51434693929912
C         5.89588870500895   14.99969927065123    0.67176044817520
C         6.03191288934505   14.15927406210850    1.79572152203529
C         5.05426813151501   14.07341210761886    2.80615536710761
C         3.88225766140311   14.79922969693752    2.66173189537839
C         7.05054355097329   14.99880935215333   -0.28451206971828
C         5.34771521370474   13.15013698326374    3.96049715655739
C         4.51107959608180   16.69197778772644   -0.61444380527598
C         5.46657475305492   19.29936431919124    0.40542977587078
C         2.89393336652751   19.04798087610082   -1.38590324078667
C         5.08612995312485   20.50991085623482    1.26055984043059
C         6.33394285093050   18.37791606823271    1.26847468063085
C         6.25383445934445   19.73508542435103   -0.82497230005907
C         2.64935157065676   20.53176589110368   -1.11335747059935
C         1.53930465631761   18.33124652962876   -1.36413502230203
C         3.54890718754159   18.85587811841413   -2.75201919486389
C         2.81034494624226   14.85869149934403    3.71792535710634
C         0.56028334843581   16.53684294937745    4.66383793545506
C         3.54856821502342   17.17520413472324    5.40608357691989
C         0.18367362949559   17.87446840043818    5.30015229232303
C        -0.30225056705977   16.34956267777521    3.41051865657982
C         0.29923128758193   15.38703881738347    5.63441061157393
C         3.52594760745028   18.70477804322032    5.44094424201952
C         3.27605244461629   16.59700202265565    6.79011809217754
C         4.94290366331670   16.73948519471953    4.94533159124234
H         7.20748015174964   12.90760068441765    2.65577056231212
H         1.51922861951035   15.42120870732193    1.59543811727782
H         2.12936746280553   16.07025224628874    0.04742005378689
H         7.33464494960962   13.96856867482263   -0.48999591900135
H         7.91793157361284   15.47825546960776    0.16833868523209
H         6.82395029225908   15.48396134804537   -1.22689664875185
H         6.22958055851356   13.47821917685807    4.51434294835236
H         5.52352087596124   12.13770255379573    3.59148651762668
H         4.52114903120697   13.08411176599872    4.65847587306229
H         3.76377651257201   16.29748453915491   -1.30785532854255
H         5.42510670898192   16.86360744063767   -1.18015387225692
H         4.51226441683096   20.19199078012671    2.13415834828566
H         4.49315994539139   21.23372186378726    0.71155984648536
H         5.98653013130616   21.01167378638010    1.61083815638884
H         6.77185401426638   17.57121419164473    0.68944737879015
H         5.73888082009203   17.94694211600941    2.08106142785297
H         7.14520559693683   18.94883342820894    1.71676254826500
H         6.45554836874600   18.90074508832961   -1.49402980353368
H         7.21267142661733   20.14161740604715   -0.50614510353027
H         5.73619797462506   20.51516283785301   -1.37598339902543
H         3.55329279786334   21.11938030979345   -1.24855228644391
H         2.26965037771609   20.67704704513449   -0.10339541403225
H         1.90437750785896   20.91284732742952   -1.80948159495394
H         1.62140004764311   17.29759067537734   -1.69560220856059
H         0.85150338190239   18.83238603107605   -2.04201973710076
H         1.10378293008017   18.35856639793601   -0.36342182434962
H         3.70068600780527   17.80555447610574   -2.98935974922316
H         4.50102648710944   19.37050135690965   -2.82624381976834
H         2.88965339391031   19.27089980715309   -3.51273504068976
H         3.12257437354363   14.39808191713388    4.65338970441793
H         1.91786995458665   14.32940353262069    3.37444636427948
H         0.67834129687116   18.02142616433509    6.25635360408712
H        -0.88962998208361   17.90355451151540    5.47889748962106
H         0.43457062288404   18.69741682553186    4.63307164614019
H        -0.19265153310607   15.35273226925230    2.98693402009437
H        -0.05185898897905   17.09578628875231    2.65399357307939
H        -1.35150072153856   16.47535616379269    3.66929099859348
H         0.84762983481555   15.50114334779662    6.56328463667348
H         0.54491069727829   14.42102097043596    5.19937043832324
H        -0.76183544376733   15.37521833558711    5.87837321285046
H         3.75704771096065   19.10688669310614    4.45038453417894
H         4.27492688822803   19.07284287083694    6.13991671265883
H         2.56004290174210   19.09462471864066    5.74641155761425
H         3.19848342788966   15.51155236518243    6.76525919311483
H         2.37090319172699   17.00799616837032    7.22746365658089
H         4.10361458949436   16.85411687134723    7.45006245081971
H         5.10018224340436   16.99179586529784    3.89283252302531
H         5.09546508606894   15.67272890621752    5.07465145472154
H         5.70032537731711   17.25876724237501    5.52995663131003

