41
CSD_code = POGPAD | q = 0 | S = 0 | Stoichiometry = C15H17N5NiOS2 | MND = 4
C         4.49646579440277    1.23117117464716   13.67802880486526
C         7.50458072177825    2.78565284221057   13.09227468620828
C         8.48532472399832    2.57109412930897   12.07154620032084
C         5.51591806789989   -0.90168939674591    9.45165563711516
H         4.51337395200844   -0.54294193650752    9.59173598151736
C         7.20011564366944   -2.05336442368890    8.66930650182531
H         7.72562054934885   -2.76042394595454    8.06263274079983
C         7.63340163922241   -1.22056962578953    9.65584374020436
H         8.62806681182249   -1.06802595956430   10.02488545740240
C         3.50632523798298    2.54636001473249   15.91913479530891
H         4.00509200895499    2.07437631371069   16.76454142625365
H         4.19561763062304    3.20164057772904   15.39056394839169
C         2.25495039496577    3.24660867227636   16.32689695944748
C         1.72915715748408    4.25772200956796   15.53067015201993
H         2.24116775129602    4.53782280759640   14.62133697147071
C         0.55997263569380    4.89973817918843   15.89407590083114
H         0.16130070272324    5.68533623397932   15.26913262911220
C        -0.09923664310390    4.53632583255935   17.05647670360525
H        -1.01269506803284    5.03768651909288   17.34038137815147
C         0.41467102874036    3.52654136750724   17.85178746338569
H        -0.09789216074677    3.23721763711709   18.75732937306869
C         1.58392785263966    2.88311956960222   17.48779681072084
H         1.98119427393925    2.09203247783975   18.10734343397366
C         7.65317511531167    3.82113972740465   14.15476768042763
H         7.59929871290863    4.81611498910376   13.71479288943711
H         8.61995629219978    3.72083554713621   14.64358040297944
H         6.85857069694332    3.70995804540366   14.88699947261733
C         9.74999985934822    3.36244893870345   11.95006485961052
H        10.39844866384607    3.19052582602825   12.80840087263887
H         9.53484851781133    4.42772761245785   11.88868567635029
H        10.26893080424037    3.04815218340591   11.04746040117882
N         6.46605392514031    1.99325201381243   13.00288206300207
N         8.17716331754144    1.60233137428626   11.23103234652048
N         6.57243811112738   -0.50742702059337   10.13384699483875
N         5.85780714806888   -1.83925101646853    8.55296417248615
H         5.23524442631286   -2.30121823488029    7.90998500780995
N         5.45373017308570    2.08037886560130   13.88880185478562
O         8.91708194227641    1.27121633234528   10.26974712473138
S         4.49708736204368    0.08546578289922   12.39220741331162
S         3.10466975713998    1.20125011260330   14.71729788046193
Ni        6.52197446734534    0.76686785033675   11.58880519081217

