23
CSD_code = POGSAF | q = 1 | S = 0 | Stoichiometry = C6H10AuN2S4(1+) | MND = 2
Au        4.50115191519311    9.37764619948947    3.45338337836113
S         3.69354453860617    9.55391012319246    5.64162322966602
C         2.18071622603944    8.84247273966802    5.57068680734800
S         1.48870654070614    8.08350704449851    4.17699823531829
C        -0.12886648724362    7.86776477507187    5.01831483788013
C         0.15717325772599    8.02128706688126    6.50959089970399
N         1.36964569658559    8.80316430157291    6.61806850691046
S         5.32732786442622    9.21479227321615    1.27086425538780
C         5.39597349389211    7.56508169279118    0.99977305032454
S         4.89871243472464    6.34254295187436    2.12001490950625
C         5.12914437660438    5.01505430416096    0.87231225354031
C         6.01636444529393    5.61795056617498   -0.21321493569713
N         5.84258418424069    7.05251491711060   -0.13791065492932
H        -0.52746134913977    6.89030117998971    4.76147665803520
H        -0.79252133227522    8.64413935280647    4.63919110534071
H         0.30645758625817    7.04479349025330    6.98689375896076
H        -0.66274927809870    8.53462746932175    7.01603494043571
H         1.66981299082517    9.17455490001901    7.50859352890463
H         4.13982185539712    4.74924335187757    0.50163861524256
H         5.58001680943361    4.15471061660961    1.35897338173454
H         5.72487866187086    5.25990186718738   -1.20272522682387
H         7.07127364965174    5.36674474579064   -0.04717655693266
H         6.21179191928229    7.65739407043761   -0.85830497821889

