50
CSD_code = POGTOW | q = 0 | S = 0 | Stoichiometry = C22H24AuClN2 | MND = 2
Au        5.40940641394261    7.40273090816754   12.81813855164979
Cl        6.69247659365028    6.73495777102836   14.54099792249940
N         2.90820866855519    8.08689078548128   11.42477564825361
N         4.70644953603041    8.07798696633983   10.02229039967195
C         4.21908443712729    7.96431691999461   11.26039215010321
C         1.93384234453691    8.54874301045537   10.43752877850801
H         1.18060420858690    7.76530785752272   10.30711978546952
C         2.58963224133500    8.93946452389740    9.10124957645011
C         3.84715625026529    8.10080551004943    8.85725603669774
H         4.41414673903612    8.53264487987170    8.02609474436343
C         2.35349140498923    7.82434339252906   12.71266322956226
C         1.50716837854995    6.73883844342925   12.88239656236538
H         1.28634638330150    6.09066996765895   12.04680794960597
C         0.96971732110054    6.47221459050057   14.12984796655044
H         0.32159463212834    5.61877580176558   14.26029822841607
C         1.27008954731960    7.28880236470588   15.20563994600393
H         0.85469368483862    7.07486839506795   16.17840949741229
C         2.10829622125161    8.37813475363223   15.03433294777931
H         2.34623276852491    9.01671373018101   15.87091509301573
C         2.64902632756165    8.64932451843108   13.79123670358280
H         3.30168115084399    9.49758791772679   13.65219015219683
C         1.29670313786897    9.85948191730768   10.91557832812873
H         1.04017702857923    9.84013202375690   11.97313288932073
H         0.38874312870379   10.04498851761494   10.34029012909517
C         2.35936445854882   10.89654433472004   10.57068767716966
H         3.17295234393545   10.84459481976442   11.29594903887216
H         1.96906804709475   11.91224965743829   10.56937744006618
C         2.84865487306715   10.45723052921740    9.18783937368078
H         2.28395320801633   10.97055913118831    8.40897496944495
H         3.90409095021005   10.68890321590486    9.04356633760107
C         1.70413888607517    8.51701254034109    7.92456883483603
H         2.02376895037097    9.05217503533345    7.02927102797813
H         0.65397545233314    8.74690697003278    8.09902502526070
C         1.95309385203465    7.01008524249937    7.75587744753340
H         1.15125722464763    6.42832513088861    8.20944999938663
H         1.99140892273450    6.74151210217909    6.70147361194131
C         3.29435503739541    6.72218755318068    8.45421808663169
H         3.98034974045178    6.18694146757500    7.80025750133333
H         3.15082023417234    6.11619460292415    9.35000151707790
C         6.72220253277330    7.33827778590411    8.86824047930210
H         6.14221874927773    6.62658311349419    8.30168452768385
C         8.08931021642736    7.42455206300030    8.67450241170452
H         8.56470811460919    6.78397710665138    7.94690809184358
C         8.84601539578305    8.31530482217708    9.41593902091668
H         9.91338878377741    8.37259457657974    9.26757898613174
C         8.22856111339480    9.13357285112963   10.34635499463668
H         8.81031899617840    9.83599194887143   10.92304263898698
C         6.86175445035437    9.05792108697234   10.54053504840722
H         6.37516657882411    9.70992652068687   11.24928117155467
C         6.10333433884188    8.14705032421911    9.81231152330203

