45
CSD_code = POGXUG | q = 0 | S = 0 | Stoichiometry = C18H14FeN8S2Se2 | MND = 6
Fe       -0.75750421917649    6.23384334459433    5.15266225201025
N        -1.72693837521329    7.55683439680467    6.14930600581523
N         0.38556616627017    6.23659503384189    6.79811076156602
N         2.09095368887317    4.70724856893509    6.38719012914843
H         1.65446126964553    4.56800623359212    5.47014068006995
H         2.63006055632793    3.95135706893975    6.77454341409362
S         1.65266258984829    5.59340270469746    8.92820590634724
C        -2.78209353074215    8.24654995078603    5.71681193661440
H        -3.06076618453455    8.07752379641509    4.68762108302320
C        -3.50110183456307    9.11783934938291    6.50923568359015
H        -4.35072662250588    9.64135481329790    6.10132457051629
C        -3.11720415195186    9.29724160914530    7.83365419217529
H        -3.66186747862622    9.96393082207964    8.48344278531150
C        -2.02113203645291    8.59612403066751    8.29784161692032
H        -1.68379688327089    8.69896341839354    9.31634488830361
C        -1.34696636820709    7.73622219435846    7.43615825743180
C        -0.19921352133712    6.94408915971142    7.82381613993329
C         0.36264381091355    6.73437870252995    9.04499564872044
H         0.08996056439301    7.13755629213850    9.99750505487309
C         1.35084495812542    5.46209336190771    7.20746665247815
N         0.28474490672590    4.87776249845910    4.23325796124908
C         0.39279926196212    4.36590614917613    3.17939562969918
Se        0.58284060536394    3.64340860173776    1.63364255080505
N         0.21248316130147    7.55740916364110    4.15702955877430
N        -1.89969551009907    6.23757061474650    3.50655901189672
N        -3.60793571799563    4.71155903994687    3.91772969533469
H        -3.17216527928122    4.57230089380335    4.83515635909400
H        -4.14756045355029    3.95580565212454    3.53078290378157
S        -3.16339267052836    5.59143035790206    1.37539355248356
C         1.26602684129190    8.24865503758789    4.59095051815298
H         1.54185067429410    8.08223031639510    5.62133956478442
C         1.98681781247460    9.11854175640711    3.79858264375224
H         2.83495662476210    9.64349206136776    4.20773983172292
C         1.60671369284136    9.29450550144261    2.47260273223289
H         2.15318083757133    9.95962021696254    1.82271520682928
C         0.51198386993942    8.59219488225826    2.00705358703411
H         0.17747712647466    8.69258126899924    0.98737240948981
C        -0.16445430347262    7.73425600203222    2.86892516501000
C        -1.31195346493919    6.94211833912690    2.48048449390554
C        -1.87158197282646    6.73039595140352    1.25864008837006
H        -1.59632793152541    7.13091709618120    0.30574353944506
C        -2.86523533511573    5.46354653361129    3.09700924596647
N        -1.79937261686677    4.87607958129187    6.07068241703267
C        -1.90149330761049    4.36036856016812    7.12318072292595
Se       -2.08224924900750    3.63208907102215    8.66725295127549

