77
CSD_code = POGYOB | q = 0 | S = 0 | Stoichiometry = C35H36BCuN4 | MND = 3
B         4.24956545766741    1.10127406814532    3.04573500898036
C         7.09087463358313    4.91276019420298    2.82418060686390
C         7.06018539182336    7.14183081179614    3.13801486411219
C         6.72791350630391    8.48266659706171    3.25497638203380
H         5.70187354496576    8.81074199803284    3.20310580661171
C         7.76733371255350    9.37900064352762    3.42228958841575
H         7.54706557877445   10.43106289067224    3.51974002259492
C         9.09474247310235    8.95807017278890    3.45318368376465
H         9.87648623230443    9.69257388096465    3.57277967268384
C         9.43571941606130    7.62420767657131    3.32173631708929
H        10.46623297380209    7.30626484052472    3.31757521059831
C         8.39889108893575    6.71531277848683    3.17581246473413
C         4.89443107674687    5.98722976903517    2.80107605584265
C         4.31616002233502    5.35907800176809    1.71004131241029
H         4.94559879343994    4.91511749938459    0.95481792451138
C         2.93445083671178    5.28063843969013    1.60297343072674
C         2.15380636797744    5.87019374123917    2.58578891993449
H         1.07686445871763    5.81481766481333    2.51277672876594
C         2.72240016734866    6.52059681682086    3.67454311260399
C         4.10365678349387    6.57215292026154    3.78074276437564
H         4.56743290039309    7.04150155669792    4.63613113454206
C         2.31868699321768    4.53700615393447    0.45970265257712
H         1.26274708034374    4.77502587301508    0.35717948895328
H         2.41667500959818    3.46475511664013    0.63476113416158
H         2.82932603823462    4.76772252449930   -0.47358080849903
C         1.84926130585418    7.12221651270861    4.73309182667081
H         2.41603163149068    7.79150999788083    5.37549857064171
H         1.42375343534612    6.33272309588008    5.35227100319920
H         1.02563957700024    7.67488281247732    4.28520381161610
C         9.48876930648606    4.49378449187965    3.00746235153154
C        10.43662505830572    4.61694525284321    4.01708959317041
H        10.31128227737522    5.37024252870352    4.78052123720758
C        11.51813726740350    3.75178312722358    4.06396676581392
C        11.62845255472962    2.75639203409141    3.09875952805573
H        12.46482402356569    2.07341649054407    3.14325845009994
C        10.68579446861470    2.61737295067325    2.09188298696856
C         9.61778853414965    3.50472346320953    2.04445131095892
H         8.87397001571619    3.41705389554455    1.26823599858124
C        12.55609343143131    3.87674008764612    5.13730856474862
H        13.49117893401692    4.24236582455631    4.71296679319052
H        12.75471613557513    2.90807659228011    5.59186725773499
H        12.23622883648789    4.56870987739036    5.91199115798464
C        10.78608276577243    1.52600278228989    1.07194987702574
H        11.69965444572311    0.95148879312355    1.19973980696875
H        10.77019301966102    1.94135080619023    0.06563880310932
H         9.93411196491501    0.85346853676655    1.16680243145882
C         7.88455010558615    1.12735529976859    4.20949376186305
H         8.68707699677982    1.85030658685774    4.12561801993219
C         8.08668246997399   -0.06763676209905    4.86465340103369
H         9.04552407065438   -0.29731374120110    5.30405402248939
C         7.01907139050834   -0.95422968690475    4.93630041692409
H         7.13072384057311   -1.90618953283855    5.43809753142793
C         5.82097502206935   -0.59454759451805    4.35775869055155
H         4.98211392822042   -1.26869086970278    4.40121542386072
C         5.66429073414736    0.63655086269497    3.70765165036606
C         4.53028832023711    1.42894758049502    1.47523770101098
C         3.72489480053757    0.91069583691553    0.45050028614593
H         2.89211232709199    0.28093889713151    0.71506736454044
C         3.97635782942486    1.19072303875539   -0.87519664245424
H         3.34556096537541    0.79082808932289   -1.65778708477796
C         5.06355245857520    1.99649079269152   -1.19250737897202
H         5.31089429354963    2.23870263753854   -2.21488293267641
C         5.82024307151391    2.48355559002835   -0.14965164593482
H         6.67738980924358    3.11871339380394   -0.34525844236573
C         3.09065177365055   -0.03893655189386    3.22465559491168
H         3.31870656195496   -0.97876415487180    2.71979801188723
H         2.13045879507324    0.30687528569162    2.84235221339000
H         2.92547437043058   -0.26993034588244    4.27642327344190
C         3.76101906960461    2.48083547377933    3.80464140555239
H         2.85119742834281    2.88202686339398    3.36107069436270
H         4.51084318822047    3.27101897195628    3.76855784909866
H         3.54900570616583    2.28651285427831    4.85464123649330
Cu        6.53589745195909    3.08221815984552    2.58688309103868
N         8.37181199775140    5.34969019850962    2.98163742720034
N         6.30098513774786    6.01288054148957    2.92008605228837
N         5.55915313334207    2.21861742454757    1.12891940828666
N         6.72168342363038    1.46310227593696    3.65212799296156

