66
CSD_code = POHCOF | q = 0 | S = 0 | Stoichiometry = C35H22F4IrN3O | MND = 6
Ir        1.88834573084070    3.32539840357621    4.43845422221344
F         4.25362421789297    4.10736904285778    9.25700984590325
F         3.76838373108366   -0.29190100343681    7.76216863504476
F         6.72921916592327    2.96150750890560    2.03219412136993
F         5.06555043409489    7.23760659281440    2.90407974953595
O         0.84146991031183    3.68909642112102    2.58954129558647
N        -0.05736639676006    2.73499606509785    5.22707777590939
N         2.13605168085642    1.36175687183708    4.16563433919655
N         1.67499127102882    5.30726266149977    4.68276535001511
C        -0.40943547137749    3.68597489189217    2.35641005546420
C        -0.85710283632479    4.16584610676235    1.09022811162164
H        -0.09597508157729    4.54254255755573    0.42255281460761
C        -2.17186268981246    4.15406897828329    0.72818833039083
H        -2.46809712817191    4.52994606660647   -0.24108253653505
C        -3.14742864844989    3.65236203996516    1.60109205842157
H        -4.18487601802644    3.63875516137927    1.30414340962555
C        -2.76545866196451    3.18318461762189    2.82555955452171
H        -3.50996169312744    2.79644091856255    3.50971397634942
C        -1.41906054679615    3.19435831552263    3.25121909902563
C        -1.15760309855576    2.68180279338709    4.54636402319175
H        -2.02262580638673    2.21637187186270    5.03262630048754
C        -0.02302401416768    2.07199201320658    6.46416871010200
C        -0.25937303288273    0.70059171201505    6.52993473108981
H        -0.51256293187443    0.16291931511273    5.62569159464056
C        -0.13295283106169    0.02926270260981    7.73173497322588
H        -0.29898322214564   -1.03730323002185    7.76686255153592
C         0.20866401325584    0.71827126247195    8.88212118635075
H         0.31316569576281    0.19105312450221    9.81794885572883
C         0.41402428882597    2.08748183908225    8.82708053057529
H         0.66818403931925    2.63263439496827    9.72375621812788
C         0.30100944564497    2.76392153541004    7.62877992111902
H         0.46745092740093    3.82915889899658    7.58542213519345
C         1.73555914437816    0.72585324642593    3.06850951205265
H         1.36699781852863    1.34942576581024    2.26536026067286
C         1.78211383676347   -0.64876591579674    2.94001436355701
H         1.44317881197655   -1.12015597152378    2.03172443660067
C         2.27203808738427   -1.39484724296001    4.00286199310298
H         2.31989046013891   -2.47145722969921    3.94425529064705
C         2.70482431703591   -0.73926257163706    5.13984642434383
H         3.09186324961691   -1.30464448902248    5.96897423542880
C         2.63279274498540    0.65220056026274    5.20708515179077
C         3.06519666700718    1.48400754687710    6.32304833360100
C         2.88450410840196    2.87672112203295    6.12933702363050
C         3.31105487209925    3.74314820601213    7.12954448262424
H         3.21428871718248    4.81268066286016    7.01944166607867
C         3.86233431442615    3.24713422576528    8.29468503405141
C         4.01451376767948    1.89123807979227    8.52098169734103
H         4.43283274893276    1.51618840733262    9.43992129208041
C         3.61322550428574    1.02974434937110    7.52123540241342
C         0.59562478261489    5.87916369021390    5.21024353875389
H        -0.14650719572973    5.21465921415280    5.63061813554111
C         0.39562358137668    7.24555456081600    5.23299347755603
H        -0.49974821850469    7.65455160999012    5.67255746333725
C         1.36729695354281    8.06340651447319    4.67527017291339
H         1.24944738276421    9.13603342324053    4.66858350696670
C         2.49073220425116    7.48039297267942    4.12200025700635
H         3.24909989384975    8.10135281550356    3.67888684536763
C         2.63242191904096    6.09203482257360    4.13125615364176
C         3.75355752806129    5.34876235042819    3.57003447906251
C         3.62733755184485    3.94072146305228    3.63767006853346
C         4.64498551101283    3.15403090059266    3.11265466546952
H         4.59421210332639    2.07659076651812    3.14386657065916
C         5.75384647623131    3.74369744602722    2.53707691457836
C         5.90449336698539    5.11674692108333    2.46247608031386
H         6.77560966518127    5.56477802786925    2.01423357636323
C         4.89467288054710    5.89828329685824    2.98420955427815

