31
CSD_code = POHFOI | q = 0 | S = 0 | Stoichiometry = C12H16HfSe2 | MND = 12
Hf        5.08408475625803    5.08413507815289   -0.00000148855652
Se        4.70826013224775    3.04027634423964    1.50894965435526
C         5.85133445515496    7.04109212135830    1.30657929099900
H         6.88631344563393    7.33727434311115    1.40980778177083
C         5.11727682714168    6.28320936361424    2.24428130521825
H         5.50464564005427    5.85087244251866    3.15727780201911
C         3.75742482478385    6.32352392034572    1.87114631368162
H         2.93894317274896    5.91575887281624    2.44762366654638
C         3.64674092352496    7.10287208576138    0.70541017791759
H         2.72664844068922    7.42294342017565    0.23618094302248
C         4.94028197685827    7.53945933776074    0.34172302378433
H         5.16006805290657    8.27477600526689   -0.42114049814746
C         4.37397826862312    1.64910738127345    0.14181443669499
H         3.79342660604056    0.86244971285809    0.61547233277924
H         5.32447159766411    1.24856784263926   -0.19991437373611
H         3.81335219738467    2.08270602065882   -0.68644415337002
Se        3.04028667122519    4.70792957912805   -1.50906297583415
C         7.04108866691914    5.85132532669437   -1.30656797373565
H         7.33728770544868    6.88629914565058   -1.40980918440705
C         6.28319906618900    5.11726930016822   -2.24426147641258
H         5.85087128508351    5.50463459821576   -3.15726455586060
C         6.32349704567700    3.75742176222457   -1.87111268921718
H         5.91577005147249    2.93893441159032   -2.44761129562207
C         7.10281324591372    3.64674164645291   -0.70535452269971
H         7.42292360121073    2.72664661737777   -0.23615137159789
C         7.53943825740624    4.94027812801383   -0.34170042614721
H         8.27479284383809    5.16005718770992    0.42113091175061
C         1.64907496433102    4.37400938659202   -0.14183730269633
H         0.86242694317402    3.79343039794025   -0.61548892563873
H         1.24849970061704    5.32450153924999    0.19988398243723
H         2.08267863377928    3.81339668044116    0.68644159070229

