49
CSD_code = POHGEZ | q = 0 | S = 0 | Stoichiometry = C18H28Se2Zr | MND = 12
Zr        7.44384286356257    7.44371205754861   19.28840109194410
Se        8.03636174612025    9.14887021650051   17.43399022943058
C         9.06167052285709    5.76410642604926   18.29117609220820
H        10.13031373549099    5.87857401238882   18.16426798117021
C         8.41138184207485    5.13140231445391   19.37868677528161
H         8.89203867688650    4.72821963506714   20.26414066003206
C         7.05685811168664    4.95747849432865   19.02608665496016
H         6.33132125445225    4.38104126352988   19.58643460941917
C         6.86218653091651    5.50675466625143   17.73964072898709
H         5.96159098849742    5.43630559847258   17.14163682446950
C         8.10375134924071    5.98918639032061   17.28036698634780
H         8.31135199914886    6.37144219799736   16.28697660674212
C         8.04460089375904   11.13731599687880   17.99890709820685
C         8.50938276375202   11.23554124542240   19.44126342621282
H         8.36203381906761   12.25248848129886   19.80454258063139
H         9.56915013501800   11.00157263570747   19.51743948477546
H         7.96595482151916   10.54953971587797   20.09634311422661
C         9.01632827790383   11.84361843625302   17.06554150842253
H         9.07042401542778   12.90098326980563   17.31985224674212
H         8.68664910261815   11.74314053545208   16.03387309337496
H        10.01032675462707   11.40957479540928   17.14745537700191
C         6.63901887544114   11.68554216092042   17.81275473634156
H         6.62570272037186   12.74824946522385   18.05226708302161
H         5.92266766096015   11.17839961301157   18.45467370797381
H         6.32530079117832   11.56048093490431   16.77819389743175
Se        9.14975233791989    8.03626700861900   21.14236235167497
C         5.76391735538444    9.06169445130015   20.28463635852440
H         5.87844295478734   10.13036366967817   20.41133067951327
C         5.13132701566504    8.41120269389118   19.19717854842030
H         4.72817991133236    8.89172194540028   18.31161913333542
C         4.95741165704070    7.05671527967897   19.54999290853960
H         4.38107793103972    6.33104622484371   18.98970293056637
C         5.50654716924268    6.86227618386372   20.83651935938022
H         5.43628744564896    5.96170689706441   21.43456717879469
C         5.98863223681839    8.10399160350890   21.29572646825102
H         6.37094009506202    8.31172518438385   22.28905925606707
C        11.13771344561245    8.04454172649011   20.57678912937400
C        11.23571200476354    8.50943633381078   19.13447926393602
H        12.25260146554012    8.36189302946728   18.77114198644504
H        11.00191276507289    9.56925752815419   19.05844850281946
H        10.54948811044967    7.96615811730902   18.47948731597912
C        11.84344105541468    9.01622501834476   21.51059157594478
H        12.90080266591680    9.07034657047358   21.25636726761297
H        11.74292985890364    8.68645469609039   22.54223678425035
H        11.40941047513624   10.01023838901325   21.42868986919251
C        11.68538179830903    6.63879823956179   20.76324817138624
H        12.74810049244831    6.62537093530669   20.52389967225801
H        11.17824667810154    5.92254951930324   20.12123023367497
H        11.56013282179603    6.32507819530232   21.79778245876449

