50
CSD_code = POHJII | q = 0 | S = 0 | Stoichiometry = C19H20MnN5O5 | MND = 6
Mn        2.14456029472708    4.19788520974539    5.80833376775373
O         3.54169162485558    3.74226887731154    6.68025314910812
O         2.46450185345398    5.25917181521453    4.52638173911379
O         4.14237977320804    6.50511984558464    2.88863954422528
O         6.15718831813859    3.75480142033695    7.16361881131113
O         2.50203565835590    6.25115074869806    7.06844205268876
N         1.10318005833543    3.35136448210927    7.36429673306662
N         0.11942279013324    4.58245871300396    5.31523916785005
N         0.38165393653170    1.04083309098457    4.19775617677349
C         3.96245466389711    3.14966011382642    7.73246753854043
C         5.35799444794362    3.08740501571295    8.05052540278513
C         5.77826624295153    2.40451131347319    9.16108657970420
H         6.82661076889085    2.33245632849607    9.40249572689439
C         4.84452497154356    1.78004325960504   10.01087735772080
H         5.21161937389241    1.24491365450106   10.87305488184403
C         3.50816163178508    1.85451039905612    9.76268439762543
H         2.79660674155950    1.38458828658016   10.42447920130398
C         3.01706925207550    2.55053317289838    8.63070517257766
C         1.64699468037456    2.68952221485157    8.38361432232132
H         0.96389951106300    2.22767791925876    9.09543420521532
C        -0.24547954316416    3.40624043855886    7.26174359898736
H        -0.85832263758397    2.92296927871510    8.01317627458337
C        -0.78664799042899    4.05203085114793    6.18145697845791
C        -0.26885578154773    5.11148738956596    4.15710728230998
H        -1.31968701044541    5.05232460184535    3.89042115881802
C         0.57164797159165    5.74513988241544    3.23059447091158
C         0.06373662727950    6.34215187196010    2.05202071788202
H        -0.99953928805488    6.29902967268675    1.87063929405304
C         0.89513858789740    6.96131815648547    1.16757507976494
H         0.49950885608535    7.41013813573574    0.26939416349095
C         2.28001593732188    7.03754511105631    1.40173386928660
H         2.90169068549058    7.54114214114084    0.67908102479322
C         2.82304303357117    6.48123640014560    2.53194206562942
C         1.98278724527731    5.80145535893416    3.46676396262797
C         5.06481655692812    7.03326582215420    1.96999436013168
H         6.04582023366731    6.89253640805694    2.42131273258562
H         5.02609264862081    6.50254338257629    1.01370695200852
H         4.89434377653761    8.10193793068495    1.79872949560270
C        -2.26874072171935    4.14838479260921    5.97100405251587
H        -2.57613217418362    5.18364662327785    5.82732052422911
H        -2.57024283650343    3.56938602249510    5.09790519865515
H        -2.78319250155612    3.74880183237897    6.83934953326510
C         7.54899783071938    3.63399555297664    7.31042407706099
H         7.98354196257573    4.17590399505590    6.47183770204569
H         7.89465191949545    4.08097887253955    8.24927534235931
H         7.86652404440428    2.58744657840696    7.26969806546275
N         2.00575443619885    2.55041610171655    4.82208913409274
N         1.13122710359528    1.82042651462408    4.54397481774855
H         3.30499735163578    6.08572918630895    7.57469515631192
H         2.72188708257779    6.91921521249600    6.40994698590622

