47
CSD_code = POHLON | q = 0 | S = 0 | Stoichiometry = C22H12FeN10S2 | MND = 6
Fe       -0.39282798747559   -1.21004793067955   12.52351756794111
N        -0.97899014259529    0.34593401357139   13.44633580676956
N        -0.72173227271460   -2.12715693239057   14.15462883507138
C        -1.09376668345049   -1.27003276621247   15.13334060484402
C        -1.24334186958607    0.07229637828561   14.74772004570949
C        -1.14000020294720    1.62167286612281   13.10124949849820
C        -1.54968532933282    2.58174428304844   14.02866057300021
N        -1.80019983236118    2.32240834516497   15.29697623559355
C        -1.64866909727535    1.04643302911581   15.68260029568814
C        -1.88307676287320    0.62652119284657   17.02511610213338
C        -1.72699131733326   -0.67199431881131   17.40098476245330
C        -1.32727691002486   -1.67064330688363   16.46561366494602
N        -1.17177653910050   -2.95748250380164   16.81031375944999
C        -0.78898778730213   -3.77951550423402   15.85690531895805
C        -0.55929852982518   -3.38692927562295   14.53080187784883
N        -2.10577034977796   -1.57443924015776   11.77864490075170
N        -0.01290578762183   -0.34786028086033   10.83236401847508
C        -0.97766365247655   -0.66117087564849    9.93637850579699
C        -2.11280585254065   -1.31712054372006   10.44756260615561
C        -3.20297653531394   -2.17519919991373   12.23735010976262
C        -4.25582016998645   -2.51974961383472   11.38827764618766
N        -4.25593132515663   -2.29591539380218   10.09012201151195
C        -3.17108009361733   -1.68498900032943    9.59171458302401
C        -3.04443714804995   -1.39596053611135    8.20114173547316
C        -1.94412661036519   -0.77013563880741    7.70561049541748
C        -0.87352805447062   -0.37360574225474    8.55854130900804
N         0.21600870152957    0.24939557272285    8.08795385208507
C         1.14649130468113    0.55192681596957    8.96359949268697
C         1.05024598909837    0.26398084840472   10.33356534557889
N         1.35131968493527   -0.89437374909612   13.10641877282802
C         2.52709556858746   -0.84609641032679   13.12978407258151
S         4.09361129975218   -0.68845336898287   13.22778630352464
N         0.16660166473739   -2.83989479791217   11.70937678022113
C         0.30025353742755   -3.40941313330550   10.68527791824617
S         0.43696462478518   -4.22825302409312    9.34393231006795
H        -0.93175418944359    1.88841661030457   12.07640813740717
H        -1.67054303692698    3.61172426008444   13.72381566617403
H        -2.18722371742212    1.38221394541919   17.73194905207150
H        -1.90033428191214   -0.98645137670332   18.41795059467049
H        -0.65445069351607   -4.81190866012160   16.14703586344753
H        -0.24240788477067   -4.08402408210471   13.77131153946906
H        -3.24436840894665   -2.39840702308092   13.29294733984987
H        -5.13372332026242   -3.00947508344739   11.78562577456429
H        -3.85540874687268   -1.70161597396739    7.55933994796799
H        -1.84172762519737   -0.55889762942943    6.65308159225663
H         2.02532775130673    1.04700137921362    8.57561853835760
H         1.84098862200360    0.51844337637554   11.02154823547182

