133
CSD_code = POHMAA | q = 0 | S = 0 | Stoichiometry = C52H60NiO18P2 | MND = 4
Ni       -2.92393289318764    3.72517356673175    4.71028190751112
P        -1.82862413772609    5.11894565140436    6.01668775296060
O        -2.93220081485656    7.98875721448160    6.34206693711062
O        -4.00567796528679    7.62880895858639   10.95364339579838
O        -2.17553867330367    3.92183878177892    8.39473237664012
O        -0.52016182188718    3.25396988543348    4.49200981592507
O         3.47601189737293    2.63341846408658    7.17584339952144
O         0.09739653428765    5.71775677605797    8.41893123506963
O         0.01017589691078    7.52054665901913    6.18247507608448
O        -0.49688769855644    8.87935769741830    1.64112696696080
O        -2.75204120336587    5.02197416526576    3.35215749198877
C        -2.46787070016206    5.99250655419539    7.46920995208317
C        -2.95408089939945    7.30057681990546    7.50766084716339
C        -3.45079287175540    7.80952006084466    8.70114360766148
C        -3.50974268288792    7.01105895648024    9.84021666144531
C        -3.10213255563807    5.68292772218453    9.79620544588631
C        -2.59533234146791    5.18532829840228    8.60291974860737
C        -3.25415426255881    9.35575428400666    6.34690139636080
C        -4.11460840341963    6.88696618837619   12.14261655193589
C        -2.25180771986672    2.97985726736875    9.42882366149941
C        -0.19355764134594    4.44492848270399    6.46691737484090
C         0.28231451559341    3.48746250335255    5.56361725288207
C         1.50272979147908    2.84933507091228    5.76237233413987
C         2.26346038368958    3.18486185844136    6.87303689734745
C         1.81231950883932    4.14781536151024    7.77089006119736
C         0.59033851153525    4.77677308794821    7.57714870934036
C        -0.12234250279766    2.30755001836538    3.52611720460745
C         4.00335752677070    1.65471351763644    6.31523558289176
C         0.85865633547004    6.10518455335018    9.53181988024182
C        -1.36833018332325    6.31438461104242    4.75064035988026
C        -0.50347850081998    7.38958898184069    4.92693692167674
C        -0.23241115166058    8.22871142296050    3.86180100367631
C        -0.83097685488816    7.97511056735248    2.62097252605291
C        -1.67246668605369    6.90055583613339    2.43070396285927
C        -1.96114869844222    6.03140107585354    3.50604903597006
C         0.82189575555560    8.63018262459933    6.45602852804544
C        -1.04517575116256    8.70398920534925    0.36180458460499
H        -3.80939647634563    8.82141835442829    8.78749195319318
H        -3.17458331972621    5.05175313621496   10.66573105404641
H        -2.62428628953317    9.91638835429892    7.04515085280689
H        -3.06575702772368    9.70149379711940    5.33114284878283
H        -4.30754109001226    9.52371063350971    6.59822159253808
H        -4.79759904042462    6.03882597020410   12.02804436534071
H        -3.13903724761026    6.52427177168284   12.48320277518716
H        -4.51954351166948    7.57492767471715   12.88351203077974
H        -3.28450047412033    2.83096842239082    9.76396400541464
H        -1.87221106700886    2.05263509386895    9.00340740942824
H        -1.63042927503366    3.26787106643510   10.28546442399045
H         1.84964944418366    2.10629338489519    5.06560361843850
H         2.44935536696725    4.37532217960657    8.60897181481033
H        -0.90256588020930    2.31947586728594    2.76438720640483
H         0.83700812123596    2.58373824224041    3.07371240386824
H        -0.05866364174892    1.30180275017791    3.95416564795334
H         3.35283499347042    0.77593850545588    6.25683653948500
H         4.17050877827429    2.05096091093102    5.30822784087674
H         4.95940216309898    1.36493512951205    6.74918804645009
H         1.03178951396799    5.26876848631287   10.21892947739004
H         1.82424017895418    6.53053852290740    9.23775710565538
H         0.26666346088163    6.86798685856706   10.03726796234916
H         0.42657124319386    9.07735021988512    3.93517550630758
H        -2.13176026083948    6.69277747746739    1.47865513155701
H         1.05664230186820    8.57427207693026    7.51837260804520
H         1.75251923694330    8.60381141493311    5.87720214621597
H         0.30179280048009    9.57240101150402    6.25039285733340
H        -2.13921396347610    8.75630778016640    0.38021077648702
H        -0.65567895354106    9.52244840639500   -0.24318074628461
H        -0.73972021836915    7.74973120049156   -0.08111065084043
P        -4.01918810793712    2.33147065461248    3.40384874244775
O        -3.09561839305686    2.42827244514876    6.06828394761732
C        -3.37994051029830    1.45796211245167    1.95128807483144
C        -5.65424287740919    3.00549584072963    2.95360948347514
C        -4.47944650582213    1.13596888422707    4.66982859378463
C        -3.88649457862781    1.41882316528207    5.91440156709742
C        -2.89374619465699    0.14988830287896    1.91282856183853
C        -3.25253980354648    2.26512999662888    0.81756522923186
C        -6.13011014000456    3.96294609997114    3.85693450642886
C        -6.43816244643450    2.67365521980327    1.84339546815954
C        -5.34427335965191    0.06075498822774    4.49346522410265
C        -4.17524934411184    0.54968568069165    6.98973337452849
O        -2.91554453311217   -0.53829652951313    3.07842149337307
C        -2.39709278620372   -0.35906827895155    0.71932602307435
O        -3.67231160020118    3.52863064457249    1.02572554110542
C        -2.74580338279907    1.76750723248108   -0.37573912336129
O        -5.32767741324607    4.19633892167899    4.92858096539484
C        -7.35049312810211    4.60112964276513    3.65815092826364
O        -5.94524663361780    1.73266747120072    1.00159744022369
C        -7.66014418130425    3.30262352194619    1.64967041544858
O        -5.85789712887670   -0.07016938935455    3.23791744430358
C        -5.61532905073035   -0.77840643631726    5.55857474016357
C        -5.01682016838209   -0.52480995994214    6.79943009702125
H        -3.71594576609295    0.75740290152938    7.94178828718436
C        -2.59356903375772   -1.90528469997049    3.07355736510970
C        -2.33819902586141    0.43937434183470   -0.41975730416529
H        -2.03850217005725   -1.37096957877685    0.63297613850857
C        -3.59619907258513    4.47052709246404   -0.00844562143235
H        -2.67341216370598    2.39866614050512   -1.24527949941211
C        -5.72548091731955    5.14275984816059    5.89446584437754
C        -8.11124206355770    4.26562190323468    2.54749568845858
H        -7.69736488114911    5.34420030134650    4.35491254027272
C        -6.70650053503053    1.34531931992256   -0.11132300944924
H        -8.29719972028349    3.07508137096474    0.81161429791829
C        -6.66957475026124   -1.17981761640472    2.96430831648683
H        -6.27429125022127   -1.62705653997272    5.48517535144013
O        -5.35106635095669   -1.42900940259276    7.77926018407259
H        -3.22351560616794   -2.46592594160484    2.37538659156617
H        -2.78184043453855   -2.25102711108230    4.08934034814001
H        -1.54021456003126   -2.07322404141026    2.82210703683653
O        -1.84233666781463   -0.17839417271151   -1.53320196405057
H        -2.56354897666147    4.61946067902533   -0.34369871705814
H        -3.97581825578963    5.39776812959790    0.41691311601594
H        -4.21763285562747    4.18240304955918   -0.86500833645330
H        -4.94529838644952    5.13079891759311    6.65623231121916
H        -6.68486661771494    4.86661061108013    6.34683157559522
H        -5.78910338335695    6.14851760367365    5.46643408834754
O        -9.32377262981814    4.81711468053580    2.24469764990406
H        -6.87957084096655    2.18177020418884   -0.79840626875827
H        -7.67211526621604    0.92000554577785    0.18269642886146
H        -6.11453869432568    0.58250171272617   -0.61678124527616
H        -6.90429294273331   -1.12387663194273    1.90196414595502
H        -7.60019891966133   -1.15347412598486    3.54311176258993
H        -6.14946439970893   -2.12202576818094    3.16995125333543
C        -4.80281969070567   -1.25372190962661    9.05861331174874
C        -1.73355002160452    0.56341669220011   -2.72220907052735
C        -9.85107186570493    5.79582501906532    3.10533029993527
H        -3.70878466110652   -1.30603730694373    9.04024615252258
H        -5.19234067261669   -2.07221939688592    9.66353062586707
H        -5.10829911623771   -0.29948871672339    9.50157562955476
H        -1.05055094192273    1.41156607934812   -2.60773549927587
H        -2.70916473060148    0.92609558611820   -3.06269017826976
H        -1.32869192486427   -0.12456134833332   -3.46313238614925
H        -9.20051491544338    6.67457355025358    3.16373728628262
H       -10.01822130499776    5.39956378549601    4.11233245304855
H       -10.80711165543985    6.08565155980017    2.67139922808537

