61
CSD_code = POHPEI | q = 0 | S = 0 | Stoichiometry = C24H26N4O4S2Zn | MND = 4
Zn       14.80800443480249    1.83035400917930    3.59200982091953
S        10.72748562672244    2.05339779520244    5.87590428655838
N        16.20518747814520    0.47562445790029    4.23125148975910
N        17.90095920847917   -0.19535656224110    5.43040309305423
O        13.93267995350280    2.05463704428644    5.45146148327426
O        13.28466675439578    3.21564608233489    3.71688843922818
C        10.02586960432404    1.82207574911329    4.26998019405097
C        10.36771594967604    2.55802510900676    3.14554912046630
H        11.12736897599108    3.32059885807188    3.18410676496636
C         9.75194844620700    2.28420298485418    1.93606246153384
H        10.03277487279637    2.86317380360518    1.06752388764579
C         8.79159787160663    1.28959590738308    1.81721635083188
C         8.44963467740063    0.56632094085234    2.95647663381993
H         7.69858348100807   -0.20841678923961    2.89076674834270
C         9.05600157309928    0.82587008442756    4.16704481568188
H         8.78966400799693    0.26321894119325    5.04875290961614
C         8.12623887652451    1.00472270103477    0.50297895999276
H         7.98951423337861   -0.06610879363559    0.35834237306907
H         8.70830850502365    1.40442999409021   -0.32473223668843
H         7.14019100437278    1.46887494975293    0.47468499841684
C        11.96290446240098    3.37638351312044    5.69337041430076
H        11.50312790132010    4.24265113285049    5.22150254612788
H        12.26117002105407    3.60481002725343    6.71550986318250
C        13.15329419963420    2.85607360456356    4.90349541977256
C        16.80923832821173    0.58554277521181    5.38723603774880
H        16.46196148041102    1.20682384797105    6.18708942026290
C        18.00136458633536   -0.82472781991319    4.22329478427064
H        18.79920360791262   -1.49873136199911    3.99290689173934
C        16.93672571673225   -0.39765020113144    3.48920021749398
H        16.65183689658994   -0.64176429637538    2.48673239266054
H        18.56416167126089   -0.26019832905421    6.18575579116847
S        18.88957268526756    2.04833650662147    1.31208296362858
N        13.41038099270392    0.47687318082193    2.95190848249903
N        11.71704760165253   -0.20019251022849    1.75280634727826
O        15.68466103426673    2.05577108121632    1.73310821084020
O        16.33279224501532    3.21421392379520    3.46935540368203
C        19.59342701551877    1.81885006567849    2.91728740493178
C        19.25110825313281    2.55401285213926    4.04211730922965
H        18.48935735775253    3.31460737869252    4.00450140978353
C        19.86911611380163    2.28180303274611    5.25083162100952
H        19.58784069956454    2.86001201994556    6.11977670029205
C        20.83169746350863    1.28925204649864    5.36867516962437
C        21.17375953846893    0.56645956263413    4.22913867047999
H        21.92620960145641   -0.20700647845243    4.29411247562556
C        20.56553454881307    0.82470120298426    3.01923333952501
H        20.83193409026305    0.26243144447689    2.13726933389098
C        21.49899803651785    1.00577399103271    6.68215469754215
H        21.64104528199291   -0.06454326955849    6.82489250133457
H        20.91548391577852    1.40120435638542    7.51085692607494
H        22.48272448670721    1.47470189700565    6.71057285728290
C        17.65711052101905    3.37408518839164    1.49447909474606
H        18.11860064577183    4.23860641218762    1.96786830279594
H        17.36040803086568    3.60446089009000    0.47232335833281
C        16.46476504259634    2.85546481695231    2.28256306688630
C        12.80595895495537    0.58463210253053    1.79591060542599
H        13.15092100353465    1.20723058430594    0.99611993609810
C        11.61900070327257   -0.83007654846623    2.95984809876969
H        10.82381355683293   -1.50713770128778    3.19028960066376
C        12.68207322165511   -0.39906984007823    3.69393812671378
H        12.96788439730125   -0.64212345296437    4.69634542197729
H        11.05468855270132   -0.26813489580335    0.99706618975331

