74
CSD_code = POHSUA | q = 0 | S = 0 | Stoichiometry = C23H40BClMoN8 | MND = 6
Mo        0.44376154634902   -2.11178425741607   11.40284895869218
Cl        0.95874664721184    0.11784699910885   10.82051479268799
N         1.74933523342376   -1.48887304700691   13.22469092836752
N         1.41773767001689   -1.93407988188376   14.45199105411546
N        -1.02137636262240   -1.17631755176074   12.81043184662031
N        -0.97138098176900   -1.41259789163651   14.13821446053707
N        -0.28525009949144   -3.78776218377898   12.62253407814972
N        -0.22500821106881   -3.75732917066910   13.96783676508448
N        -0.63658633068422   -2.26071537026633   10.02276865903558
N         1.86702342892481   -3.01193666851421   10.91302595879915
C         2.97187146705827   -0.97018731537455   13.30505643743549
C         3.70360615886732   -0.34084976075710   12.17539864752391
C         3.44203411750367   -1.09709674012553   14.61753040449378
C         2.42591187157972   -1.71251124877968   15.31902361739794
C         2.38943499878717   -2.09868632608996   16.75413647418460
C        -1.93341857639380   -0.22699691412116   12.60611352892901
C        -2.27763454579423    0.29042642261013   11.26163352459620
C        -2.48286237348023    0.15626839692937   13.83179089350259
C        -1.84329215910305   -0.61560802382399   14.78308936822383
C        -2.03524992483698   -0.61017622616204   16.25687956423003
C        -0.66747394377548   -5.01469541511659   12.26323951797375
C        -0.90330350037435   -5.41163711018097   10.85433097808218
C        -0.83642028200416   -5.79535073237968   13.40785063550335
C        -0.54679353189153   -4.96141662470789   14.47261032835762
C        -0.56666721051980   -5.28244599673581   15.92326517054772
C        -1.07332908023412   -2.31535662549519    8.68598054063460
C        -2.57224501698491   -2.65806400837000    8.57885796070162
C        -0.25620187643780   -3.35635281163215    7.88514169204681
C        -0.81340445169620   -0.93504123699304    8.04269339235506
C         2.98054147918286   -3.84138379349300   10.70471365408064
C         3.81824668596741   -3.99136157592807   11.99448912253452
C         3.86475365224826   -3.27482549665634    9.57564663339878
C         2.50193516549578   -5.24892952889866   10.28557571858133
B         0.00535851038915   -2.43859682116548   14.72610870699778
H         4.77682589264331   -0.40060653592508   12.35052186735749
H         3.42209811473259    0.70893826667168   12.08771811275307
H         3.44807135640829   -0.82885951703892   11.23632487821494
H         4.39309312236186   -0.78046924679945   14.99532539876983
H         3.34012151670672   -1.85020784086548   17.21824144939412
H         2.21398519424162   -3.16783946625988   16.86192804401488
H         1.59457887279313   -1.57121464973750   17.27911166568087
H        -3.27271287661140    0.73019454554531   11.26945226994363
H        -2.22895545736322   -0.52747466486349   10.54582694928592
H        -1.55456053582375    1.04848724311828   10.95675219187119
H        -3.23829299044472    0.89700048062647   13.99787347850119
H        -2.79566686591527    0.12072514947998   16.51850148769268
H        -1.10774545389553   -0.34945984786621   16.76391098870029
H        -2.35162224114551   -1.59007191320740   16.61068806422744
H        -0.48208503720464   -6.39478128878163   10.65489260367911
H        -0.44927179123595   -4.66271466616749   10.21065122764584
H        -1.97546192086693   -5.45895160673842   10.65998808928782
H        -1.13040800274090   -6.82425183357954   13.45108156932737
H        -0.77766040290432   -6.34003764897585   16.05616283706435
H        -1.33344057282105   -4.70453898935577   16.43633917070493
H         0.39255581214491   -5.05215554298394   16.38213484080377
H        -2.85858080310416   -2.74642271882915    7.53352505505409
H        -3.18030829220928   -1.88435575729750    9.04194101738550
H        -2.77490077625455   -3.60120202392398    9.08145507215199
H        -0.35508335913952   -3.17905132795467    6.81697064105908
H        -0.59257898660469   -4.36785422842101    8.09673981214041
H         0.78898160507166   -3.25740524214408    8.17205589975456
H        -1.06239111511573   -0.96307981385167    6.98441980929048
H         0.23915581100748   -0.68188459301776    8.16237781488434
H        -1.40686610207308   -0.16148880344806    8.52132203485335
H         4.60737397658268   -4.72650295859808   11.85174632316007
H         3.17295682503268   -4.31917781596656   12.80919763199451
H         4.26921977467718   -3.04365248019530   12.27160306333885
H         4.68526311793827   -3.95602847972874    9.36230753927084
H         4.27541800465526   -2.30949716881389    9.85963356059202
H         3.26697210124710   -3.14084736138181    8.67683478287581
H         3.35664388927854   -5.88999418243704   10.08148042272160
H         1.88734685376055   -5.18090708038355    9.39256444143569
H         1.91424850237400   -5.68689690450010   11.08851799846698
H        -0.18101693401837   -2.58813694813326   15.88036588025688

