43
CSD_code = POHTOV | q = 0 | S = 0 | Stoichiometry = C10H20N6O4S2Zn | MND = 4
Zn        1.87297306565707   15.15047730281849    7.55909235734625
S         2.35021320852336   16.05351096025582    5.47229927018304
S         2.22617028779903   14.25322685282906    9.67312464616600
C         0.80370878598192   15.13816372152370   10.38706860852755
H         0.92557120221709   15.07339362471075   11.46785250430559
H        -0.11541784605559   14.62391837910676   10.10151802961551
C         0.89963891134850   13.69719671818812    5.10747940495459
H         1.88115431152574   13.23151947525010    4.97019944061561
C         0.74185941484936   16.60211370179622    9.94120048150421
H         1.71083110682829   17.07436174297789   10.13422099596959
N         0.52252693066820   13.62536833132315    6.51860277240582
H        -0.49258952479701   13.74669950952713    6.55810089389109
H         0.70426440992058   12.69145892842923    6.88017081524835
C         0.97838263484669   15.16335738946982    4.67132799018609
H         1.16375875006882   15.23308962467440    3.59991231878511
H         0.04053059503755   15.67051949970036    4.90378229735579
C        -0.36863206044020   17.30087424923541   10.73056703773536
N         0.44877881831934   16.66649703368650    8.50991940957688
H        -0.56123127996954   16.53731601348062    8.41038129116911
H         0.64463282425623   17.60078196177261    8.15663082302663
N         0.22458232308305   12.68601428699391    3.00537942305741
H         1.18685250897256   12.81347630566896    2.73527330719084
C        -0.67342016458272   12.09713496234496    2.03052191506399
H        -0.28680860773748   12.28769124215963    1.03014805560857
H        -1.65796949876529   12.55906382523282    2.14587464211548
C        -0.15877569200889   12.99745015836100    4.25044431357370
C        -0.81522541365714   10.57450205466366    2.22859707771212
O        -0.73459065121847   20.52527923134329   13.51917726446967
O        -1.27855161706016   12.78274668826679    4.69035548383902
O        -1.45809452591069   17.51771753791919   10.22127870847445
N        -0.06482690464507   17.60948525815938   11.99812487172424
H         0.87845186225116   17.48204322962146   12.32849258232345
N        -1.73388251470829   20.04693177827358   11.54930057941711
H        -2.01243838573424   19.32851612383310   10.89505266004238
H        -1.84090659389001   21.01762319489111   11.30451360900696
C        -1.02173508023503   18.20135681758744   12.91313553879314
H        -0.70392373377721   18.00556063103909   13.93636364189653
H        -1.99920235960042   17.74630159950263   12.73087580208767
C        -1.14014034546064   19.72523797439303   12.71037331169835
O        -0.36302907716151    9.76979881798548    1.44972257043625
N        -1.48774676131109   10.25981304902533    3.34779141909151
H        -1.80175295993677   10.98181391019273    3.98183692105021
H        -1.61839035369686    9.29049630189088    3.58661491288349

