67
CSD_code = POHTEL | q = 0 | S = 0 | Stoichiometry = C26H36HgNPSi2 | MND = 2
Hg       -1.20706256469595    3.21527689094320    4.22452532529884
P        -0.33418058539803    5.83748361928449    5.64496865998442
Si       -3.67176923576199    4.02065411316557    1.84298097789922
Si       -0.98997847834297    3.14545030801368    0.63648370144591
N        -2.02549433821366    3.53755303862590    1.95073871491329
C         0.06159532499681    4.15719198628019    5.87886774505357
C         1.54479390508371    3.83922903916574    5.72445532658341
H         1.72002175170786    2.78667129870928    5.95040975036489
H         2.09852749537254    4.42953847901520    6.45874832025815
H         1.96680352479073    4.05466611207632    4.73785643372211
C         0.10484382193316    6.94786349653230    4.24172116226681
C        -0.01988649231557    6.42676512732201    2.95817415138607
H        -0.40822318656630    5.42329245519734    2.81328592626632
C         0.32490637143070    7.19372143964630    1.86019040612368
H         0.22434471109526    6.77755029731283    0.86978351163560
C         0.79943456743524    8.48307453260730    2.03722532000050
H         1.07797457318787    9.08010364559849    1.18152195188758
C         0.91208253572343    9.01074386698842    3.31413469638365
H         1.26954868615479   10.02083241248574    3.45298308724815
C         0.56765210866693    8.25017782817683    4.41649354285396
H         0.64241548139765    8.67120999953944    5.40919639089163
C         0.42119545283561    6.66467407972117    7.07946716566756
C         1.77792000628673    6.98057090208209    7.04854383131449
H         2.33918093238903    6.83618880225886    6.13429530348413
C         2.39542816492359    7.49656636458928    8.17268465342290
H         3.44725645977121    7.74124165104492    8.14481139029527
C         1.66585302274357    7.69804676237574    9.33360032505998
H         2.14886710604060    8.10296056530948   10.21036439976925
C         0.31815118192308    7.37947634443102    9.36962420457762
H        -0.25026833711663    7.53734226835396   10.27436293096574
C        -0.30337624526406    6.85577891187384    8.25005358193336
H        -1.35391934166330    6.60283254883474    8.27656673036636
C        -2.12110920818824    6.02428400430970    5.82330376816102
C        -2.80670619584847    7.06504908696390    5.20746034752140
H        -2.27142770708442    7.77617942381849    4.59385881174808
C        -4.17523788731583    7.18113817625608    5.37675504841510
H        -4.70905867238585    7.98099925248696    4.88579369486234
C        -4.85835053200682    6.27380441620429    6.16859703819090
H        -5.92654323399184    6.36655162181290    6.29577471444486
C        -4.17321096303759    5.24701554836377    6.80072334395617
H        -4.70664887668854    4.54523617962349    7.42491780858843
C        -2.80677393002527    5.11854621236392    6.63126459294201
H        -2.25370088754469    4.32814643545967    7.12523344525977
C        -3.82463657019947    5.92990814609089    1.75865725355487
H        -4.84414095847875    6.26006511251294    1.93250503286360
H        -3.51712803103544    6.30277700701767    0.78747553090162
H        -3.19291556250812    6.40027115810106    2.50622814180142
C        -4.56675880771668    3.45930021656218    3.43959110209401
H        -5.59936456650609    3.79200499192827    3.45656543863886
H        -4.08414683693916    3.87020861248894    4.32729171979061
H        -4.56892957434812    2.37670656634017    3.52649283592789
C        -4.62834620234606    3.29123607875449    0.36305788386506
H        -5.65749196040826    3.63578205483653    0.34149549481987
H        -4.64146574584289    2.20736261594670    0.40267093862813
H        -4.16112850388953    3.58163854791071   -0.57110192341812
C        -1.07730153972787    4.45679484485573   -0.75486642608350
H        -0.14086396405619    4.54490912131920   -1.29708533286544
H        -1.32868645143922    5.43137075658804   -0.35058341221511
H        -1.84894265133875    4.19686328075889   -1.47139146659322
C         0.80862123464039    3.10095369632178    1.30429105438441
H         1.22193489177323    4.09633782128024    1.43444283721904
H         1.46136429179800    2.56394176298011    0.62420034015052
H         0.86033857261364    2.58863630871035    2.26868516559568
C        -1.32452669487510    1.43978113755294   -0.16124992856181
H        -1.23749993047533    0.63875530004630    0.56639737005021
H        -0.62787076088222    1.23102149190865   -0.96794713873285
H        -2.32738396414305    1.40039382394968   -0.57232474492842

