46
CSD_code = POHTUB | q = 0 | S = 0 | Stoichiometry = C20H21FeNO3 | MND = 8
Fe       11.74544958354891    1.62568252521407    7.36202774913354
O        13.48749839104971    0.56785616448041    5.32820744243072
O        12.81063502486123    4.12608928514342    6.38417671873077
O         9.49295203130459    3.29618136861441    7.44502740614635
N         8.21704360734444    3.26550363064758    7.94029095087779
C        12.78485565741489    0.94697179830154    6.15236926666353
C        12.35196102125687    3.16544094766186    6.81004321368266
C        12.48779918917265    1.54433323358958    9.50176740169507
C        11.12955476279123    1.92965721791522    9.68244624141170
C        10.31846326197029    0.88931162447848    9.21971451115955
C        11.15693208247217   -0.14337189690204    8.72360611787118
C        12.50104446177935    0.23971283589793    8.95786350582567
C        10.31529444666980    1.65650431636019    5.90264313972250
C         9.49737877368185    2.92590831833653    6.03875092507404
C         8.01011296175946    2.78567482378766    5.67441069192918
C         7.37466644990931    3.00476376377190    7.03152891107509
C         5.92439630765989    2.90248414486085    7.24740555637548
C         5.09251480236916    3.96793089976214    6.90593951346056
C         3.72139377218500    3.83165088124446    7.07377484019293
C         3.16508090526596    2.66389652027303    7.56950908374670
C         4.01246742117081    1.61771240531434    7.91207856964362
C         5.38468352836499    1.72036822809134    7.76118531699637
C         6.28472804696640    0.59021448478539    8.16099428400058
C         1.68424450316646    2.52175925612772    7.74888909862373
C         5.65984567206753    5.24654505918959    6.36488119805819
H        13.34339053037458    2.07253289832895    9.89081703883730
H        10.78692954891616    2.83316886176942   10.15469337365606
H         9.24330110800129    0.86331219991371    9.26367598706647
H        10.82965290766787   -1.12581743176674    8.42319646481658
H        13.36829279105466   -0.38835930903229    8.83334396302346
H         9.69499326219265    0.79470780734470    6.17494960526742
H        10.61867112394282    1.54037123573541    4.86077955719204
H         9.97642610697148    3.75305466677565    5.50499576123324
H         7.76723944986948    1.79769349386270    5.27894945004816
H         7.67211956999590    3.53270453134732    4.95619401587792
H         3.07731140617600    4.65925698299376    6.81176265111328
H         3.59024804655825    0.70451863911589    8.30746747014257
H         5.70519706244416   -0.29080578359973    8.42545824109102
H         6.96883026711037    0.32892420801347    7.35475866449107
H         6.88004862642339    0.88667820358564    9.02383610755330
H         1.16110233834171    3.40439539418155    7.39037980445559
H         1.31685069375762    1.65271422013062    7.20482069211423
H         1.44413619893916    2.38002478982303    8.80207061947651
H         4.99499167664021    6.07937686520238    6.58084379520713
H         6.63453306966676    5.45350219718564    6.80087577471600
H         5.77383754874019    5.18276349213822    5.28169930809951

