70
CSD_code = POHWOZ | q = 1 | S = 0 | Stoichiometry = C32H31BrClN4Os(1+) | MND = 9
Os        9.29537624319388    5.37467995916376    4.01388206629965
Br        8.98762714849274    9.64826293347101   -0.57320843496564
Cl        9.53181716880944    7.62515937457742    3.78779338972334
N        14.39531457014987    8.13551140671534    1.48325585935151
H        15.29348000893471    8.58862646593220    1.48961590189870
N        13.52461528185749    5.24265162220473    4.41428164415174
H        13.59207340448055    5.01155282108014    5.39662233632757
N        11.21735474260856    5.34196196414306    4.65612890112129
N         8.94693996777261    5.53248429770392    5.92464238465581
C        10.72495629815249    9.21666169253332    0.08308650534940
C        11.76122959766579   10.12467535119490   -0.15552333657266
H        11.55254776024233   11.03801173588517   -0.68993904397722
C        13.03754564846183    9.85425599735725    0.28272355048511
H        13.84479418691350   10.54544284435462    0.09838097006566
C        13.24934519078719    8.66233431945037    0.96530375947397
C        14.11147179576720    6.93481153896060    2.07974264146593
C        15.10721385332149    6.09328438850314    2.70496626270697
C        16.42688265709184    6.09965996594691    2.24242717619529
H        16.68091413025444    6.72759517414705    1.40205404609753
C        17.39616371303094    5.30667920530597    2.81800154881932
H        18.40503290520819    5.32511590515323    2.43793298941737
C        17.06915687147051    4.48810166744211    3.88943373777767
H        17.82046160250367    3.86753356444577    4.35085238070708
C        15.77592003425172    4.47450761649018    4.36985191976757
H        15.52359435232831    3.84849498552366    5.21425557259417
C        14.78217943644133    5.25688240463077    3.78381858574536
C        12.27987543829086    5.33293467839690    3.90559634867274
C        11.36410693258556    5.39817406793565    6.10738822228093
H        11.99979093012446    6.24688603549301    6.39327423461395
H        11.81912718736170    4.47204293585918    6.49122807535138
C        10.01245915561612    5.57230498510707    6.75180386641422
C         9.88078368562814    5.77234818844523    8.11415757467100
H        10.76218870512982    5.79386098938054    8.73521323962266
C         8.62112240180548    5.95682786177116    8.66381398222553
H         8.49869942247179    6.11846705346183    9.72175316567202
C         7.52897733264161    5.94780052169031    7.80792488535334
H         6.53009804412060    6.10854678797391    8.17854364417299
C         7.73316976076004    5.73907817239918    6.45980938622579
H         6.89752907876497    5.75227227882250    5.77421641264631
C        12.12473760638363    5.40365205584926    2.41444966425055
H        12.60514356411875    4.53078709950312    1.95976975772664
H        11.05892566377785    5.40982701825234    2.15907823293399
C        12.76954098635533    6.66125376564920    1.92871623693813
C        12.19405712003296    7.74884061438962    1.21866090653418
C        10.90872718273166    8.03260803857411    0.75712461006655
H        10.08695977036088    7.35880330221952    0.93328180323210
C         7.64307538925633    5.63477780759504    1.63621492885545
C         7.15572270024953    5.30179446755349    2.91385660320495
H         6.36528102712613    5.91246363427417    3.33546286203709
C         7.51662698424977    4.08559398470711    3.53390201928162
H         6.94637126148458    3.73533949295131    4.38975792679861
C         8.39927245228390    3.18571341529683    2.88291029402176
C         8.91955113208508    3.56533988320217    1.64577697283875
H         9.58389460903189    2.89072351222139    1.12250769251942
C         8.54816414387194    4.76280046447540    1.03148711832766
H         8.92981177726565    4.99051557546275    0.04645485164960
C         7.16444484042350    6.87224268577077    0.95780654767379
H         7.51771372527598    6.92948449954205   -0.06756463242832
H         7.51438636455299    7.75358347698033    1.49602452176440
H         6.07661546709522    6.90684225436436    0.95569945965709
C         8.71500853098612    1.83740671884640    3.48514717557133
H         9.49187434322260    1.36598174737514    2.87297537722021
C         9.25291397019492    1.98533696915727    4.91201218369284
H        10.08943027861784    2.68913159311509    4.93152065184004
H         9.60445977639531    1.02489609521774    5.28048818935594
H         8.47931114063823    2.34145556333907    5.58992850686325
C         7.47617136109027    0.93810600168804    3.45788998855221
H         7.72601999348121   -0.04980342978774    3.83519810136834
H         7.10432919213660    0.83397477297879    2.44141141738886
H         6.68052099982737    1.34844316009535    4.07504367773246

