37
CSD_code = POJCID | q = 0 | S = 0 | Stoichiometry = C11H19MoN3O3 | MND = 6
Mo        4.33406890846726    4.19356176882793   18.78740004968298
C         2.83331608530682    5.27215505978252   19.31047064953622
O         1.94749038489137    5.91627695230002   19.63710504656640
C         3.71689979304763    2.89533351012776   20.05915324123999
O         3.34693922215297    2.12273601496576   20.81852112066312
C         3.15994412656934    3.38447047265280   17.49969243513192
O         2.46872582367606    2.88670608941801   16.73803868760688
C         6.63500930148173    5.58105870575208   17.79206570321948
N         5.24653925000433    5.65608304986508   17.38027018480848
H         5.13317511919707    5.39250103682608   16.40448908018502
H         4.87752477418984    6.59737127288387   17.48889769117875
C         7.52627107044558    6.53557665799110   16.98203424241728
H         7.46382031802077    6.30422603802169   15.91972320974298
H         8.56729275587205    6.45429969197322   17.28663085281111
H         7.20871125456877    7.56701544958139   17.12728597412908
C         6.67063196111488    5.97207393282891   19.27620762202019
H         7.71594299980665    6.02691547197367   19.62483682193585
H         6.24384819003592    6.97868990160933   19.35671688827030
N         5.88362934332484    5.06687370890399   20.10448730656532
C         5.33671471060587    5.77769815475166   21.24959819977027
H         6.12910364558582    6.17180870464221   21.90278864908490
H         4.70182970128571    5.10202639114787   21.81909694559557
H         4.71293781257080    6.60124544253458   20.90659429954507
C         6.69126082082576    3.94645566784890   20.56878235483084
H         6.21959709887699    3.54777429100130   21.46952632813666
H         7.70103437556101    4.29354135631232   20.85096850224362
C         6.78468955628910    2.80632806946341   19.53991656040750
H         7.83590635273564    2.48083812718021   19.42952638765833
H         6.20916658009625    1.95522908201499   19.90915799243759
N         6.22375159130844    3.17283035279091   18.25158231381464
C         6.03657415493022    1.97450963875069   17.45079358777819
H         6.98759731439254    1.45260195127353   17.26710736182471
H         5.58093474873680    2.23567115724054   16.49700070434388
H         5.35374145397531    1.30376239925360   17.96858282869552
C         7.08467833293300    4.12965358683753   17.56208121151473
H         7.03465892223698    3.93988062265237   16.48330811184970
H         8.13654214488013    4.01132021801839   17.86876085275706

