96
CSD_code = POJDOK | q = 1 | S = 0 | Stoichiometry = C48H40CuN2O3P2(1+) | MND = 4
Cu       10.67401183624392    3.16668978583589   21.43469118321292
P        11.59943644199621    1.89017465923550   19.74789729956616
P         9.34250729983507    4.83592480324534   20.67291110330233
O         8.91823953638088   -1.99173645454313   24.09843667522059
O        13.61654286630222    3.19646932234113   26.81276284729819
O         9.11048847262597    2.63008670474098   19.07121121655377
N         9.65441665033673    1.74193973803438   22.54825183981488
N        11.74318184437170    3.23082485604168   23.15247921229064
C        12.63746099614046    4.14851983999878   23.49750130803135
C        13.27997671356918    4.15196058760650   24.71239972785265
C        12.96936487913468    3.14983008569724   25.64466646015867
C        12.01360654156828    2.19914779874275   25.28375567288333
C        11.42566309959153    2.26934985743123   24.02555121620803
C        10.39579314878148    1.31838923584660   23.57407136882852
C        10.20427060122053    0.06922053454715   24.15475991416000
C         9.20122637297548   -0.76137010177331   23.65441600382915
C         8.41705658113867   -0.28257286072696   22.59480941004729
C         8.69155428271169    0.96165286838371   22.07900140575215
C        13.35071126439337    2.22065341514695   27.79962989807250
C         9.66960329223162   -2.53889201776138   25.16202904131562
C        13.40434320463959    1.67873574450267   19.62931426825902
C        14.21109688016086    2.63676375789978   20.23265574183766
C        15.58900101067872    2.52912116375615   20.16903736501415
C        16.16597738191071    1.45962256179774   19.50452942187851
C        15.36572821843706    0.49584767833205   18.90946093054648
C        13.98855188563485    0.59948043888506   18.97094792152231
C        11.07443432890748    0.16465180773675   19.98724575301832
C        11.65938536206284   -0.51542953491340   21.05432822595080
C        11.26942339638941   -1.80493898147923   21.35566272600164
C        10.27818961039335   -2.42201209062007   20.60813204480220
C         9.68800813447713   -1.74640584857876   19.55374765972749
C        10.08178098665833   -0.45673148384913   19.24068512731309
C        11.13047751112297    2.25288025509163   18.02704003834847
C        11.96950880769508    2.28998379781466   16.92517033984443
C        11.47341845622326    2.70049200309561   15.69846176936792
C        10.15365443517049    3.09840679937359   15.57548592413261
C         9.30478139633474    3.08939560243863   16.67152311709460
C         9.79747282421130    2.66269473920802   17.89054072514109
C         7.83869573855541    3.14803270109028   19.19719324152295
C         6.71800210792269    2.58062700933381   18.61791916127922
C         5.47315953249251    3.12657572443900   18.89504428247593
C         5.35429676927922    4.21005520373996   19.74954329651889
C         6.47751834702740    4.77338357384001   20.33443760338471
C         7.73041284095643    4.25169767074141   20.04962817226257
C         8.86075338741222    6.26801522662769   21.68213096118564
C         8.35235270824171    5.96936090359791   22.94556802464313
C         7.97051893142504    6.98677086173524   23.79810824697359
C         8.11278445696983    8.30808390664177   23.40126223542474
C         8.64175038225083    8.60754518319538   22.15670047984130
C         9.02117057304795    7.59243667321421   21.29500652666004
C        10.01045534328002    5.54216242510189   19.13275674955631
C         9.20296271406243    6.18804313792758   18.20043660066216
C         9.75194501016760    6.64488057357837   17.01651966236537
C        11.09964966874197    6.45627673894023   16.75281714768851
C        11.90674749531532    5.81715774383476   17.67917229133202
C        11.36294904660434    5.36174227236415   18.86586370029461
H        12.83999523602675    4.91446648106309   22.76212640125573
H        14.00715070724033    4.90341932103017   24.96851249367663
H        11.71271529080601    1.43136268084781   25.97598554088428
H        10.84223571988712   -0.25873318486354   24.95778182088619
H         7.62817795745517   -0.90030848236337   22.20151033936803
H         8.11595236120031    1.36535756596568   21.25816400580472
H        13.99618175488381    2.47135935090738   28.63879642541201
H        12.30680969524625    2.25542535026199   28.12333635343548
H        13.59595395850311    1.21655184722151   27.44228135202534
H         9.25946348606698   -3.53280067391420   25.32857759016195
H        10.72823306112469   -2.62321356090797   24.90077289077770
H         9.55967261054301   -1.94597288993224   26.07438271316373
H        13.74564034201698    3.46055804348135   20.75899818822122
H        16.21264190029848    3.27556622907092   20.63811315801974
H        17.24062943475732    1.37285238620662   19.45301340784186
H        15.81860180770090   -0.33915195845319   18.39600011446251
H        13.36186274582168   -0.15465023918568   18.51452439746453
H        12.42981522158741   -0.02300980787068   21.63559531971154
H        11.74120856295943   -2.33534571137907   22.17024971414620
H         9.97024267042510   -3.42862743875926   20.84601751711932
H         8.92073211313098   -2.22924020634021   18.96699626318130
H         9.62758663409904    0.05937428645214   18.40758173626433
H        13.00601874116094    2.00481956137500   17.02580460419484
H        12.12368240326422    2.71936874398480   14.83795770830963
H         9.77664573672331    3.42921616737069   14.62026582218347
H         8.28339290596378    3.42713157497878   16.57987142511953
H         6.81609403080833    1.72335751077133   17.96830193120222
H         4.59262292216657    2.69619566076078   18.44387129315751
H         4.37941519103617    4.62158362643684   19.96100522309374
H         6.38319543618873    5.61876418932323   21.00038331813387
H         8.26028397426695    4.93064184900331   23.24093902935468
H         7.56656238821007    6.75493252031274   24.77242171291939
H         7.81654765550224    9.10475622778990   24.06645244074245
H         8.75961735289463    9.63730996621664   21.85443917041915
H         9.43824293754971    7.82859396119727   20.32648623934872
H         8.14950743678114    6.32746130770017   18.40330114299615
H         9.12565530813085    7.14661572621304   16.29412983306106
H        11.51991061450696    6.80799601734985   15.82314590337558
H        12.95602174238321    5.66806593150764   17.47381068728090
H        11.97820834444764    4.84858147059499   19.59658448353430

