75
CSD_code = POJFOK | q = 0 | S = 0 | Stoichiometry = C35H34Cl2N2ORu | MND = 5
Ru        3.73559941309171    3.90512235082926    4.27717935047733
Cl        5.47406302277648    5.38166531986540    3.95623492116120
Cl        2.11323347500044    2.34020373473898    3.81827011292610
O         5.22010332211342    2.25776025484176    3.87483230312208
N         2.26489974970449    6.21830590161372    5.60752518816600
N         1.67702771844440    5.79838999442516    3.57043305765689
C         4.16575993213190    3.35810516573158    6.04382172553298
H         3.79246528725883    3.77199686626828    6.98069961640057
C         5.07237499898727    2.27962960101557    6.19104203920655
C         5.43831841609475    1.75876817532837    7.44337940316379
H         5.01416407882027    2.20647533288700    8.33038293357095
C         6.31558030781283    0.70136643213772    7.54058464914046
H         6.58774368593997    0.31056667107747    8.50939491057618
C         6.84968357203409    0.13402647922081    6.39223505558371
H         7.53269266245419   -0.69865870710883    6.46823448187007
C         6.51974515411318    0.62469812052572    5.13765903970247
H         6.94910522000738    0.16096221186174    4.26305375221927
C         5.64144258768628    1.69064966107763    5.02742138736737
C         5.79419468199612    1.92310375500581    2.61498903003551
H         5.82157050485665    0.82784707778333    2.51382593946888
C         4.85240271888329    2.51303458985122    1.57230316703049
H         3.85487750930119    2.08377167389853    1.67469760071775
H         5.21650883324980    2.31814994528083    0.56746260225364
H         4.79832051119055    3.59664681625207    1.71341732400523
C         7.19479791915543    2.52092900638539    2.49464788106089
H         7.13706509698176    3.59934594379560    2.63584726758486
H         7.60455328089737    2.31234323748803    1.51006045324095
H         7.86340001671497    2.11275803976659    3.24930589234327
C         2.44866994553711    5.38465271859896    4.58537316536361
C         1.33178457435999    7.30329233707559    5.30917828299776
H         1.83333121695107    8.26906838516311    5.42548453933278
H         0.48384618175802    7.27520035266519    6.00072256576977
C         0.92876451039868    7.01391161692576    3.86165816319037
H        -0.14542196608968    6.84473142367490    3.74337628421310
H         1.22844997927343    7.81213474341792    3.17380277511674
C         2.70084164532043    6.05633426419727    6.94639494924435
C         1.97855994807408    5.23819323268563    7.79094610313771
C         2.37422608527004    5.14485597119769    9.13772042429938
H         1.80808852444178    4.50626627797345    9.80046009413070
C         3.45230113373501    5.83879641540557    9.60978288956699
H         3.74018759839033    5.75969967356390   10.64836784722827
C         4.21894607284527    6.65601859165222    8.75524816539517
C         5.35542333454304    7.35811531659888    9.20754681548494
H         5.63700488076656    7.27192236085786   10.24747361103427
C         6.09112427388479    8.12255304442461    8.34675264241453
H         6.96412445648261    8.65274181743845    8.69850126458885
C         5.72663485228453    8.21561195826755    6.99442225870509
H         6.33107264932633    8.80592215669471    6.32216417720985
C         4.62437813779394    7.55859760816471    6.52594200056356
H         4.36528454161030    7.60747619723431    5.47987099096335
C         3.84019763865123    6.76763103089845    7.39166526380453
C         0.83161032045502    4.42442060000242    7.27428926142569
H         0.01578220510474    5.06176648264357    6.93424381373198
H         0.45000026522657    3.76450215081639    8.04830763982973
H         1.16436924818238    3.81759702919816    6.42918138203714
C         1.55614362433188    5.13785401535142    2.31853998338577
C         0.46646949276301    4.33003395693154    2.06738374668995
C         0.39206550011852    3.66553053481733    0.82883884777820
H        -0.45478977392764    3.02111572700816    0.64415205513326
C         1.37352597265760    3.79334563319596   -0.11044607525800
H         1.31282436546566    3.25225670319922   -1.04386871680720
C         2.48406662152530    4.63126416408685    0.11421263326123
C         3.50698028674458    4.79732580200997   -0.84173302444375
H         3.44209389528217    4.24354414022362   -1.76767202721435
C         4.55509805322741    5.64297941873098   -0.60580854430592
H         5.33757098178614    5.76090568045522   -1.34120175655336
C         4.61385880197156    6.37931967180281    0.58670197904413
H         5.43440373315133    7.06011624638141    0.75448211114251
C         3.64325057062455    6.23632670578443    1.53980180363800
H         3.69320002981095    6.81996869335165    2.44768462232188
C         2.57035720080573    5.33752171003975    1.34387016499052
C        -0.62028431986240    4.12606681849685    3.07652838369770
H        -0.23876565829067    4.24897443072104    4.08681517510224
H        -1.02260029493461    3.12071031367908    2.98669991392491
H        -1.43334501554544    4.83526222448420    2.90980026809920

