112
CSD_code = POJFAY | q = 1 | S = 0 | Stoichiometry = C54H52CuN2OP2(1+) | MND = 4
Cu       10.41579758392775   10.40595253839998    5.81308865774330
P         8.47770671125505    9.26871479431427    6.14344637448452
C         8.39712424218488    8.57757567170678    7.82629554400282
C         9.59500455920030    8.38791944144426    8.50655444465553
C         9.59175721823140    7.92857834142241    9.81038012007715
C         8.38906797475626    7.65678444510220   10.44107093400787
C         7.19228066521900    7.83809585608441    9.76569234685345
C         7.19035458414114    8.29996880859863    8.46242284579292
C         6.99826905365196   10.33350182083464    6.18533061087885
C         7.15842088053402   11.46753527614747    6.98796223819244
O         8.42157526126236   11.64206140615590    7.51549311757397
C         8.66713450586021   11.53260552950467    8.85561235880708
C         7.71607698299006   11.40414067654777    9.85049750713506
C         8.13890419932075   11.26678413695847   11.16364580047164
C         9.48717499112364   11.24520915146328   11.47510232607914
C        10.43861729534802   11.35650029378191   10.47424440193649
C        10.03516741045665   11.51714067684732    9.15851187910496
P        11.09831714850415   11.53789971456110    7.68255656714867
C        11.21340125611165   13.29965780029307    7.24692943346378
C        12.22376203128822   13.63349284838281    6.34661924036276
C        12.35738110314890   14.93223041375391    5.90020941178255
C        11.46920487050235   15.90587277287980    6.33141164668428
C        10.45786231030668   15.57635368682318    7.21769227573994
C        10.32703840778671   14.27723870739335    7.67871890043525
C        12.75633897403040   11.25586216854618    8.37834498305996
C        13.39477470435936   12.19292818982611    9.18657667524032
C        14.65182017385713   11.91980373060592    9.69296633133045
C        15.27949190138171   10.71986595641112    9.39386960338327
C        14.65327317539186    9.79098455131462    8.57931847735573
C        13.39507096209568   10.06001005627139    8.07093402404125
C         6.13230614074258   12.38183012956512    7.14385335586993
C         4.93022428583090   12.15654466275569    6.48917831681294
C         4.76704837387815   11.04387350744141    5.68062986479311
C         5.79839667266167   10.13237263969211    5.51943662753847
C         7.94812971140416    7.91766950653997    5.04994876186882
C         7.57165412028542    6.65336041420585    5.48551268206393
C         7.21923707973292    5.68735334268047    4.55846366754613
C         7.24923186214995    5.97341636430737    3.20348444026639
C         7.64366290735456    7.22872894894268    2.76513575467200
C         8.00143867514595    8.19525016780452    3.68463766961398
N        11.72497969813221    9.70141288136179    4.45327260506772
C        11.89587689209724   10.50029558712551    3.39355916076808
C        12.64767175466612   10.09593861594548    2.29398002684330
C        13.25310004783964    8.84503889729844    2.27436142149642
C        13.04583137091956    8.03458147915216    3.39339019106770
C        12.27907964891527    8.49853135849593    4.44180109100160
C        14.09167105322947    8.34546427894277    1.11583237434175
C        14.22663627626504    9.38112937233046   -0.00288454342456
C        13.42900938712155    7.08610649192438    0.53890636428188
C        15.49628081023092    8.00543697274045    1.63518417154816
C        11.21023238556896   11.79957804899742    3.45954136097544
N        10.23300717823664   11.87520828826577    4.36993775597480
C         9.55368669281794   13.00068012722545    4.48764575863700
C         9.79825585937636   14.11532237657470    3.70647990301365
C        10.81356897319368   14.07519596727900    2.75300234599048
C        11.52503299959126   12.88149898759954    2.64709973265082
C        11.13718537029809   15.23649610051935    1.83368335133520
C        10.87311481306851   14.79146301366440    0.38705773191273
C        10.27882134060395   16.46801513008926    2.12995946417996
C        12.61218816654856   15.62799455882766    1.99493615220008
H        10.52724518177916    8.61793835119848    8.00261377109705
H        10.52428579035517    7.78941374061210   10.33617783797393
H         8.38278925783299    7.30376502656008   11.46085196953830
H         6.25626265363376    7.62229805252031   10.25876640801615
H         6.25621242188610    8.44916830182415    7.93753173082977
H         6.66428495462307   11.39287774725236    9.60670805375024
H         7.40268794768876   11.16759825394863   11.94608180763458
H         9.80084512098265   11.13073185854783   12.50085679941833
H        11.49035945856578   11.31288286597086   10.71471092909137
H        12.90592684956246   12.86224116683279    6.00947084632284
H        13.15707445077822   15.18698660915624    5.22057386052079
H        11.57146258330406   16.92300112964014    5.98362053264871
H         9.77129191765873   16.33724535021396    7.55851241035560
H         9.54504949183514   14.02854684168682    8.38178388500340
H        12.90573229209794   13.13126265691829    9.41070153154593
H        15.14602161331877   12.64448776284012   10.32265235382796
H        16.26080080497864   10.51243538180260    9.79269329665582
H        15.14678406905803    8.86067498250124    8.34019540523108
H        12.89728979804241    9.35033350377531    7.42173098057439
H         6.27318540544374   13.25730847432102    7.76059430648171
H         4.12058350889080   12.85960707934328    6.60911902884242
H         3.82853156603151   10.88303235952374    5.17278426593931
H         5.67039433132150    9.26491147922246    4.88819709891301
H         7.55233095827826    6.42668424735084    6.54200529912964
H         6.91933124673663    4.70660390522811    4.89596183719341
H         6.97061524361551    5.21597182587438    2.48679960187878
H         7.67464991444252    7.44791606401166    1.70806324541557
H         8.32297306185567    9.17888537653472    3.36196905825586
H        12.73799779917499   10.75763720434025    1.45066376300770
H        13.47300758504854    7.04743524765554    3.45343232512037
H        12.09770064409659    7.88267781908052    5.31230500032554
H        14.84393034961016    8.97136358222073   -0.79832772864867
H        14.70757805760979   10.28824630456344    0.35681242322061
H        13.25785771905338    9.62998310085671   -0.43050249535016
H        14.00979999266588    6.71817286351145   -0.30281834851785
H        13.36509776802535    6.29352834301983    1.27918029214419
H        12.42330121072013    7.31174843482871    0.19017308780521
H        16.11973499846481    7.66591844139083    0.81228115915601
H        15.96102428289415    8.88405836172046    2.07796637417964
H        15.46736829181580    7.21859514246324    2.38349318163025
H         8.77093629338483   13.00424866785434    5.23362414683793
H         9.19508141508440   14.99399407679251    3.85240747880354
H        12.33320594828460   12.79660814259909    1.93962981125952
H        11.05832036135506   15.61903965331286   -0.29270094701987
H        11.51859585751225   13.96576802668647    0.09950266101580
H         9.83851894838086   14.47588016400513    0.26947100202264
H        10.56735533929929   17.27689259051850    1.46332760696787
H        10.42287580452043   16.80813501153560    3.15302618132119
H         9.22376341929541   16.26211502153329    1.96575558792658
H        12.85183493325507   16.44007193992070    1.31324008797668
H        12.80250504781270   15.96694977876525    3.01037696975112
H        13.27887435191599   14.79816400463670    1.77722558684732

