36
CSD_code = POJFEA | q = 0 | S = 0 | Stoichiometry = C16H14CrO5 | MND = 9
Cr        7.24858831142554    4.79931974911732    1.71631177677017
C         3.93261207684169    6.25780557230524    3.51980164158103
C         4.25624210105542    4.75804735936774    3.38993999736091
C         4.98246170613605    4.46446131269210    4.70994635915557
C         4.60933526445519    5.64555335015036    5.62690578732953
C         5.78297515077936    6.15109870535796    6.41003295262390
C         5.89257535265870    6.04155318450919    7.71967660150020
C         2.90004956524953    4.03481217759276    3.29868398114972
C         5.08677825228161    4.40797948255698    2.17263579075636
C         5.75512575239343    3.17487733581359    2.14523431162760
C         6.47880946422060    2.77212175502999    1.00568253086012
C         6.55323987690318    3.60839270723202   -0.10470693678239
C         5.86226994520878    4.83795890840487   -0.09680988135832
C         5.12726049258147    5.22602861999042    1.01983217354651
C         7.40245288097293    6.22971000869339    2.82863558854657
C         8.70032390395976    5.59176574521431    0.94295361968276
C         8.52730291160383    4.17284306042765    2.84886451826631
O         4.13197338894917    6.67574183493340    4.75998651263453
O         3.49261411819073    6.96505097537647    2.65729606824009
O         7.57266983093618    7.10152187657557    3.56897603928718
O         9.64781156965117    6.10798081887891    0.53402178891665
O         9.35152099867589    3.85030791545179    3.59396289981574
H         6.06500599853891    4.46010639511731    4.55434632486954
H         4.68368229632995    3.51845974405580    5.15741829549976
H         3.78464122520971    5.38595635244338    6.30405984113708
H         6.55331503048539    6.61642152970971    5.81216986125037
H         6.76075463085461    6.39995924044558    8.24344567453852
H         5.12358046330348    5.58440117343690    8.32133973689206
H         3.04786086879916    2.95872340420819    3.22457367672764
H         2.29279403181172    4.24526567809523    4.17689547872340
H         2.35907368554643    4.37620549755683    2.41808714043897
H         5.65529946971285    2.48415645615258    2.97449888367659
H         6.93003408951519    1.78733000445243    0.98094548908142
H         7.06405390842162    3.28168920162480   -1.00225532582835
H         5.84525019406431    5.44878368624285   -0.99110146968876
H         4.54016119227559    6.13430918078859    0.98931227117046

