56
CSD_code = POJFEZ | q = 0 | S = 0 | Stoichiometry = C23H28ClFNPPd | MND = 4
Pd        3.71463737598923    4.91893428224560    8.08003204102593
Cl        3.77049635883280    4.28359960468016    5.81017234191023
P         2.55333047439593    3.07755025197417    8.38979433126376
F         2.38185585250142    2.41632806626908    9.86972728952247
N         4.85746062267368    6.65368739048990    7.79722664081658
C         3.22150012472303    1.58383228775251    7.52756447023986
C         4.69161214491118    1.54179218043613    7.94721277202445
C         2.48109571699759    0.29526742201809    7.85244732206337
C         0.81325891250924    3.35117943489556    7.97325703919188
C         0.52917854178034    4.55653634114121    7.33671361496542
C        -0.77459721120645    4.86897405774125    6.99950382306982
C        -1.79748807136864    3.98778161089500    7.31468093547111
C        -1.51974421581252    2.80308932433267    7.97786331798707
C        -0.21597955229419    2.48074484140946    8.31115765582953
C         3.93323694509399    7.76861577270071    7.57607619529460
C         5.80497535735931    6.61277185350571    6.68435245515041
C         5.54952702106711    6.80322786559771    9.10130542282724
C         6.59388818107494    5.69706343162818    9.30031515505613
C         4.50039105351731    6.63930212495421   10.18111654955502
C         3.54000277525998    5.68171461007345    9.91293110440527
C         2.49041956529068    5.48459380640481   10.82646436402192
C         2.43584491822360    6.20390311118637   11.98918619454578
C         3.43316401503036    7.14682838117745   12.30841456393016
C         3.39919371392297    7.86905863328024   13.51933275991301
C         4.37303385917792    8.77607240905456   13.82541197053291
C         5.42815456242648    8.99718597410817   12.92819489251292
C         5.48912194207586    8.31709152785960   11.74441669350398
C         4.49645507010606    7.37559487200082   11.39117377952799
H         3.15876378162553    1.79483528422484    6.45641340000579
H         4.77409677327009    1.38436981346302    9.02358415997240
H         5.17159640734638    2.49597601447731    7.69095114708376
H         5.22139923408819    0.74191797086582    7.43379921478280
H         2.99316296256496   -0.54501855251006    7.38626561220015
H         1.46320191505881    0.32556966204822    7.46982887247100
H         2.45395125298589    0.12332514491815    8.92685953584250
H         1.34948943788670    5.24593491164941    7.10960112906965
H        -0.99808604977178    5.79901797501157    6.49823788609021
H        -2.81686660147174    4.23075802136972    7.05335242232183
H        -2.32293295426200    2.12945350127115    8.23832978295328
H         0.00151188999775    1.57055152161406    8.84980665685817
H         3.34981693000808    7.57803062392127    6.67069034018154
H         3.25260142005740    7.87616350946876    8.42430787967110
H         4.48297088151303    8.71188138362598    7.44691593113618
H         5.25445984539444    6.60794702185956    5.74337152619030
H         6.39910050881838    5.69942949511231    6.71762202955492
H         6.46963951443490    7.48712023715757    6.70526650738008
H         6.04019082203097    7.78833641048464    9.13083236811683
H         6.89956242409172    5.68269265225390   10.34458404718576
H         6.13499006740065    4.72217753803422    9.06268850286319
H         7.47914242670222    5.84659534371732    8.68628732201974
H         1.71493498941409    4.75798184383706   10.60944337883134
H         1.62509179005768    6.05339002786380   12.68879823908576
H         2.58394737814048    7.68474953180101   14.20490419395855
H         4.34138253047515    9.32401301903833   14.75575052842732
H         6.19889635645904    9.71085655670760   13.18200668983292
H         6.31865801152716    8.49702206697909   11.07695499981451

