51
CSD_code = POJHED | q = 0 | S = 0 | Stoichiometry = C18H26Cl2N2O2Zn | MND = 4
Zn        4.35086549988360    3.64376716960840   14.68173200491214
Cl        3.96986536495399    1.47603379535500   15.10076581232737
Cl        3.77689146052530    5.77987622772159   14.31848564010865
N         6.01350231792237    3.37021656359338   13.22232172360080
H         6.12491002742019    2.36147194582716   13.12047087024804
N         6.15128431109481    4.04316200152695   15.93039617839585
H         6.19883887995799    5.05784678180870   16.02278976582241
O         3.57131797522215    4.00575000571155   16.95173028397855
O         3.33047124984796    3.21914726264352   12.51707041040299
C         7.25220788863306    3.93192103096609   13.75518205951581
H         7.17448982149988    5.02222129554694   13.66540439778040
C         8.49700954218349    3.43735668186756   13.01127490779096
H         8.43120576119918    3.71344399925860   11.95741371727228
H         8.53798963598807    2.34643064582656   13.07336811514538
C         9.76843106759121    4.02814387032025   13.61228007103313
H        10.63925880892072    3.64812239554205   13.07555766247069
H         9.75270664254026    5.11429444932256   13.49907334341809
C         9.87040461828676    3.67180785958844   15.09058994149710
H        10.76820302006294    4.11819777954101   15.52105711335482
H         9.94932431162305    2.58815462853316   15.20058972309954
C         8.63918776423840    4.16913994084154   15.84088167945820
H         8.72080572632945    3.89843524654993   16.89508461286019
H         8.58887675683703    5.25944499457234   15.77423507619544
C         7.35652876002732    3.57528246108140   15.25003684622103
H         7.37510337802670    2.48277868965751   15.34414316995159
C         5.91556049838382    3.46409713126337   17.25553597327478
H         5.83938563025451    2.37831502009768   17.12778608433911
H         6.71857640863379    3.68591248398621   17.96953546020503
C         4.62905754228568    3.99340630090275   17.79252616713433
C         4.25898770041591    4.49683511896643   19.00146034425911
H         4.87850057856785    4.61156822319195   19.86771929651434
C         2.88623190316827    4.83686425323701   18.88566975623937
H         2.26737762469396    5.26129043378443   19.64917695083037
C         2.51458881097705    4.52320415998500   17.61307483107266
C         1.23597126557057    4.66418149435781   16.87357275522508
H         1.39122284882002    5.29268314450435   15.99651532118944
H         0.48183044888199    5.11394193260922   17.51155087802833
H         0.88913302083931    3.68889230826439   16.53274200818804
C         5.57662355096221    3.92492404982699   11.93844667084598
H         5.43386528265274    5.00215506937832   12.08141402814511
H         6.30276630699315    3.76303545629177   11.13196614150962
C         4.27811581115527    3.29935754156421   11.55667704901188
C         3.80348718174526    2.76333942261032   10.39937708926594
H         4.32300425692826    2.68607938331495    9.46580634801004
C         2.48166988846229    2.32871517423465   10.67674200696409
H         1.80673732113874    1.85721813640850    9.99242159572617
C         2.24225579493451    2.62427779450440   11.98499372327072
C         1.07294718072229    2.39650961380641   12.86955886645642
H         0.27918085081896    1.89998619621919   12.32024827631793
H         0.70591598776041    3.34554059147670   13.26035989114403
H         1.37232571340548    1.77672184240951   13.71498735996602

