44
CSD_code = POJHUT | q = 0 | S = 0 | Stoichiometry = C17H15N5NiO6 | MND = 7
Ni        2.07802741174022    2.63860487284690    2.71568931128780
N         3.11542489183254    2.07188601942952    0.19379707384120
O         3.54449443032860    1.63835320534411   -0.84431569663124
O         2.74570986390609    1.27334490814262    1.10250889025272
O         3.01226735688138    3.27841150685860    0.43023539192553
N         3.82287264904812    2.86456114213029    3.43145576699027
C         4.66565557823154    1.89050471972821    3.77837067803250
C         4.24457379419230    0.47790156406025    3.60954355368593
H         3.32318062994702    0.29743653145299    4.16446065283161
H         5.01787513812690   -0.20825041018793    3.94009350955726
H         4.00015390272842    0.28816258006649    2.56370283117088
C         5.92938724681100    2.19891409375437    4.29356510821532
H         6.59291096426707    1.39400605080344    4.56709675299915
C         6.31668923873555    3.51358614074154    4.44721639365492
H         7.29024175987176    3.75905580528385    4.84317285191869
C         5.43120008653424    4.51641821545868    4.08327693062017
H         5.69571305506247    5.55544112885425    4.18793444583161
C         4.19027356007833    4.15960419249244    3.57854182723410
C         3.15985950767416    5.10834294367195    3.15740835740431
N         2.07821615294484    4.47549986428832    2.71526448648205
C         2.07718736973307    7.18846043316066    2.71788631745422
H         2.07663555412330    8.26797766643372    2.71925593766852
C         3.19225046613213    6.49974586830747    3.17186625143443
H         4.05939019412047    7.03268262107024    3.52620003231736
N         0.33326582798901    2.86470704614249    1.99994711863691
C        -0.50966841307709    1.89068939239936    1.65326234084554
C        -0.08894301612361    0.47815111968907    1.82331268684342
H         0.83360348429647    0.29762310944434    1.27024324777224
H        -0.86158986664441   -0.20806004134275    1.49138224285916
H         0.15339574240934    0.28867088372476    2.86973496238563
C        -1.77305723393603    2.19915801716188    1.13721829464816
H        -2.43681919695852    1.39427761807422    0.86418150951131
C        -2.15965232625971    3.51384884228046    0.98188573135705
H        -3.13269428851250    3.75937083674534    0.58471162855503
C        -1.27408207656304    4.51663913339612    1.34572297364458
H        -1.53798206649977    5.55568086289446    1.23972118258176
C        -0.03382409904387    4.15975138678379    1.85203366396450
C         0.99622777061449    5.10843079370238    2.27410213141950
C         0.96273335753615    6.49981407439369    2.26233505834716
H         0.09507182747374    7.03274632247359    1.90927158345947
N         1.04492368766504    2.07329499929596    5.23933890771932
O         0.61792616630788    1.64024476883944    6.27852421923579
O         1.40934103170495    1.27435962596818    4.32890241690271
O         1.15083288456999    3.27964954373904    5.00344044313139

