32
CSD_code = POJJOP | q = 0 | S = 0 | Stoichiometry = C13H14Cl2N2Pd | MND = 4
Pd        6.14469956929401    2.37655674350790    7.99896783892384
Cl        7.06190555963590    1.33759531887854    6.26530734673816
Cl        4.95166766084156    3.67135337018669    6.65569782480940
N         7.07533538860276    1.24884307631887    9.39783305940902
C         8.05520789052924    0.37371883469387    9.17278685905353
H         8.30947367565823    0.21821635446061    8.13011602601793
C         8.69918845300162   -0.29606907464088   10.19773988505994
H         9.48491836528873   -0.99778800081338    9.97070719964196
C         8.31804579821212   -0.04576258822795   11.50755063207815
H         8.80059898443445   -0.54612571775110   12.33264065428201
C         7.29983742442695    0.86630232275255   11.73807707719831
H         6.97378831399936    1.09072142923051   12.74210283953807
C         6.69505968324539    1.49686603238035   10.66053071864977
C         5.55319967000310    2.46991033454374   10.86460299545905
H         5.71336878752341    3.03724140076474   11.79329839627922
H         4.63256109198884    1.88334246307367   10.97794651435352
N         5.38700242222536    3.37012339050607    9.72429478569719
H         4.41296215039120    3.62158438772612    9.55376722449683
C         6.20022008302045    4.54182663425161    9.68147893852794
C         7.52728110798204    4.52827763212600   10.10840933735572
H         7.97570884184986    3.62821705778633   10.50766369762798
C         8.29066590239122    5.67940892686924   10.02481594823707
H         9.31949953124768    5.65210686810799   10.35315315995403
C         7.76424425307643    6.86105820578857    9.51942935844012
C         8.60208999003675    8.09988716619412    9.44357608545644
H         8.61269902598269    8.60508336127860   10.41014344463093
H         8.20487745379041    8.79041429143190    8.70440888192438
H         9.62898240450539    7.85525867989102    9.18205489864774
C         6.43812365188447    6.86555166629088    9.10393773103887
H         6.00628553625367    7.77104066442231    8.70505180757777
C         5.65914991937949    5.72866555789085    9.19068964617371
H         4.63655140928972    5.74667321007674    8.84251918671072

