29
CSD_code = POJJIJ | q = 0 | S = 0 | Stoichiometry = C12H12Cl2N2Pd | MND = 4
Pd        5.45113086876630    1.35407082569484    5.59473192511861
Cl        3.33375219075633    0.69570048814857    5.51533982660685
Cl        4.94398256831693    3.27259732715710    4.61220896435516
N         6.14163417816767   -0.36319324744810    6.41258374262446
N         7.49910426883371    1.92337135216273    5.79494587134887
H         7.75810001665953    2.48292311493661    4.98213728604260
C         5.39450502325107   -1.35537091623302    6.89618470113036
H         4.32357631560359   -1.23070276220735    6.77995134467993
C         5.94682067981234   -2.47224632066809    7.49719640759892
H         5.30557667929687   -3.25236360434350    7.87334742463638
C         7.32651406992747   -2.56393242327490    7.60504513139878
H         7.79239564286389   -3.41937183360528    8.06883380778035
C         8.10025527670742   -1.52831555968465    7.10452087542266
H         9.17703707257331   -1.55934708768741    7.17025376415127
C         7.47739801291086   -0.43929462886676    6.51222864540119
C         8.28587575492021    0.69806461233938    5.92366659227922
H         8.61266136211640    0.39203553750339    4.92176475019867
H         9.18249785685236    0.86891894406992    6.53774537671930
C         7.37280928648820    2.76030328453746    6.94145491763388
C         7.31974185247913    4.14354319119272    6.76675211197701
H         7.36603435080171    4.55797711709612    5.77006790492091
C         7.16291095047398    4.97601843458344    7.85797955397232
H         7.10728305954058    6.04305388709833    7.70776217147890
C         7.08062330753321    4.44762079259121    9.13614778577170
H         6.95847434448575    5.09964613333879    9.98694443682595
C         7.15019110827564    3.07770608328587    9.31540433959968
H         7.08585363927727    2.65647222266524   10.30744479112614
C         7.29683515856154    2.23058514748301    8.22932531826831
H         7.35082510374653    1.16352988813324    8.39753023092892

