43
CSD_code = POJJAZ | q = 0 | S = 0 | Stoichiometry = C17H19MnO6 | MND = 9
Mn        0.45451032143806    1.10361584767398    2.95400543039954
C         1.05875136565767    3.64003614163554    3.90089866679875
C         0.10291190428403    2.82239027382021    4.43291694322385
C        -1.04725868679435    2.20296155092060    3.80810077488343
C        -1.39000846467300    2.41033541652687    2.41394646163079
C        -0.58866421520820    2.76596402482836    1.37894483156037
C         0.82453316179629    3.28804007127486    1.43068201498396
C         0.98009211373905    4.32229151642593    2.55798519854413
C        -0.35992698113545   -0.46335018340998    2.67269690097989
O        -0.85619420306588   -1.49191497030903    2.51650400100697
C         1.43668371470817    0.26994265703148    4.17912527036665
O         2.07371346643566   -0.26790952199863    4.97911957366694
C         2.20271495768548    4.09271644399595    4.75572396463426
C         1.77667886804449    2.13690135225227    1.70304682617322
C         1.60421342154689    0.89769995289925    1.11667692371735
C         2.74349172777195   -0.05732560730543    1.12993596071504
O         3.82030746686188    0.15248178868145    1.63506608329726
C         3.44242109873220   -2.18844461618180    0.46562359759264
O         2.44075768190020   -1.18107449387528    0.46689260599951
C         1.23269912673872    3.83672075088188    0.06268363341443
O         0.63812537834376    3.63429597596692   -0.96313222361762
C         2.90491743365990    4.98930994173829   -1.09724690289518
O         2.38068251461454    4.51493938621917    0.13584334372870
C        -2.19386317616442    1.85933321924951    4.73318561421848
H         0.20083704992953    2.59897802342501    5.49517458172693
H        -2.40722569630663    2.12837127602404    2.15243860883966
H        -1.01961942402128    2.77054712560186    0.38316549357994
H         1.89489001627808    4.89536285683428    2.39510333919957
H         0.13402806150733    5.01974032896904    2.53629222530609
H         3.15263170745089    3.91738418576952    4.25030309659650
H         2.22115805925165    3.57139758454653    5.70939381761394
H         2.12559764349921    5.16579099863953    4.94219817048021
H         2.76188949583543    2.38006138871636    2.10013913327967
H         0.87281238490984    0.71944702158917    0.32735036832496
H         3.02960447347734   -3.02569495508778   -0.09055624338943
H         3.67575831217370   -2.48350378586747    1.49045642195778
H         4.35307020403580   -1.81914089627878   -0.01114284572390
H         3.84565361252774    5.47841177811402   -0.85803321578402
H         2.20967095938901    5.69463790395496   -1.55737610171961
H         3.06776999296970    4.15570014014883   -1.78315845602892
H        -2.87757797236242    1.15492710609371    4.26406886616241
H        -2.75430808423273    2.76169231627365    4.98998031892734
H        -1.82253079323031    1.41393268358857    5.65407692562447

