117
CSD_code = POJMEJ | q = 0 | S = 0 | Stoichiometry = C46H64N3P2RhSi | MND = 5
Rh       11.86812690292993    9.83997827482027    8.47436558438274
P        12.21344108024330    8.04882128762837    5.88557567820010
P        13.37046173855403   12.60506275999773    8.09216032654744
Si       13.17901214987963    8.75438083306020   10.03502856580525
N        13.02576809624032   10.29860182446155    6.92493651909825
N        11.47349886363929    8.08625687368273    7.31736413535448
N        12.39095251732442   11.81668045689910    9.10124288073338
C        10.60332163651463    7.05432840887953    7.70407692222027
C        11.90601045991723   12.43592672894970   10.26362041888636
C        13.02454635428182    9.62295304563144    5.75747505888044
C         9.31733407235572    7.37059384224217    8.14189804250418
H         9.03223761923333    8.41280655451561    8.20163520431282
C        12.61267744760328    6.96844275065054   10.42310385253187
C        13.51373247332434   11.53288545404276    6.68419147649568
C        13.31987924474266    9.66674456663781   11.71142870092022
C        10.53324564245565   12.43156080158633   10.51676419268566
H         9.88165331253312   11.92253971876446    9.81819552982540
C        12.62056853599332   14.19623450085007    7.47499491048255
H        13.20218553472190   14.49092730850156    6.59327135253753
C        10.96229035483882    5.70834148839301    7.66990753181183
H        11.96721181463114    5.43421173167773    7.38824548060876
C        13.84786499341380   11.65503875134218    5.33109601805040
H        14.25280215044081   12.51987515652839    4.83813876121215
C        13.53524716333553   10.43513722654024    4.73908581250783
H        13.65152890239609   10.17991424650857    3.70165643690231
C        11.33337238514091    6.71167677966270   10.90207031429742
H        10.64909821931135    7.53404133955827   11.03798499583194
C        15.10858766921974   13.02165697652081    8.64934616185460
H        15.05970636088521   13.74920367879533    9.46585714310908
C        10.01257975279114   13.05542296413867   11.63013177820700
H         8.94385861546688   13.03701912239978   11.78750969690525
C         8.42439917364212    6.37990605790056    8.49492128223371
H         7.43119779852812    6.65603769557908    8.82216244764702
C        11.00435993458749    7.95195031972648    4.46963937872748
H        11.56174024430245    8.21645864374400    3.56318617071332
C         8.76942069034265    5.03594229235883    8.42000897870475
C         7.75635364412578    3.96175368878519    8.73274329897981
H         6.84223273984851    4.44976310960667    9.09004845175994
C        12.73293585730343   13.06645962548042   11.18968210955001
H        13.80283118112472   13.04421309741879   11.04961533869897
C        14.55960054557308    9.99467701252667   12.24734941379468
H        15.45836189643212    9.71900080013854   11.71281123724086
C        10.83580145214044   13.71679851223580   12.53534506977356
C        12.18781822980657   10.01286701252075   12.43956356367485
H        11.21411175306204    9.77676803255051   12.04061326204390
C        12.20284950061087   13.69680543920271   12.29907099255655
H        12.87199502405441   14.18235932534089   12.99618231346351
C        10.92155304313898    5.42649025047478   11.19729470002942
H         9.92438588440271    5.25614041945003   11.57736555075415
C        13.46729286941674    5.88693983213071   10.24783035047543
H        14.47520179204564    6.05855427462181    9.89523779068610
C        15.70513773161012   11.71463476865818    9.15495748670399
H        15.08675000561576   11.29795836583418    9.94884689858094
H        16.71406079372831   11.86879173887439    9.53451146834260
H        15.74443840227787   10.98563078652877    8.34598537173645
C        10.05990862835643    4.72222546806575    8.01444420695272
H        10.37544815053808    3.69042228216816    7.96367704063926
C        13.50900283918403    6.73556217630989    5.56670282451422
H        13.03115568575604    5.75072508378860    5.57330486576451
C        11.78214190372347    4.35942547609692   11.00462671031925
H        11.46102695366093    3.35167656745016   11.22781332899648
C         9.94132474236864    9.01271454953529    4.73089854462831
H         9.36930779020111    8.75632715598848    5.62143440177751
H         9.25595679917514    9.08952445519943    3.88814977063956
H        10.40691446563148    9.98652722401072    4.88838583182469
C        10.26921116345027   14.45290108772583   13.72490085286093
H        11.10591116040829   14.88286087228396   14.28775727324004
C        11.19429726950451   13.87058092543888    7.04695274599265
H        11.18921453601699   13.03168374569102    6.34980378427443
H        10.73141180680973   14.72756116965927    6.55999615627569
H        10.59630692282496   13.60011573289439    7.91584652709770
C        13.05972403654152    4.59432217252844   10.52805797832591
H        13.74166447985194    3.76788391092113   10.37875164727426
C        12.65629983957003   15.31199433343265    8.51175220116429
H        12.12280187864802   15.01342581374714    9.41239047953042
H        12.17854988001453   16.20532471655595    8.11062491757840
H        13.67830913275390   15.56822982822347    8.78415653486584
C         7.41190985436668    3.18087259953347    7.46101455173180
H         7.04826200595121    3.85555850235146    6.68858164773926
H         6.64069602668977    2.44120565425267    7.66618162550772
H         8.29050045061794    2.66594977487144    7.07952940732837
C        14.49560828883326    6.84223733594606    6.72257814602974
H        14.97853677728733    7.81898719238860    6.71045254530720
H        15.26348534978460    6.07339178733631    6.65142547987832
H        13.97599870198552    6.73975310997654    7.67448936057517
C        14.66868768847975   10.65677445045408   13.45770758917244
H        15.64467471327935   10.90669602701741   13.85162259172888
C        10.39051959580998    6.56642838629077    4.31244096939855
H        11.14966889069302    5.81881253171254    4.09065700239816
H         9.67004048473548    6.57071868298467    3.49512050417100
H         9.87264232017661    6.27292879597171    5.22385270129047
C        12.28676488404805   10.66216515681561   13.65533485611489
H        11.39099833974677   10.91355395922811   14.20462518037883
C        14.19138694041669    6.95510468407509    4.22301684185114
H        13.49694635762078    6.82508426214395    3.39570562487326
H        15.00234289221469    6.23848815529237    4.09992948672183
H        14.61277841588453    7.95703421054915    4.17345979213242
C        13.52930369704619   10.99475484416694   14.16664275399033
H        13.61034799430576   11.51149025978162   15.11273832370952
C        15.92213018384106   13.60503441916748    7.50155706500485
H        15.92433186903685   12.92070035165956    6.65547647704135
H        16.95275200607429   13.75684743521342    7.81946062520305
H        15.52399797142657   14.56377148288000    7.17593289079635
C         8.24664224780994    3.01325851922132    9.82683009017714
H         9.14489204519651    2.48896094909076    9.51145970745631
H         7.48025052680944    2.27505816278752   10.05548438677647
H         8.47509362359936    3.56743368378006   10.73332877607914
C         9.36675682167483   15.60077539574752   13.26345480790148
H         9.91390679495799   16.27175817476908   12.60421854177357
H         9.01084079483220   16.17074470452607   14.11933524367253
H         8.50423043706973   15.21815359464131   12.72318637320598
C         9.50540443525557   13.51074899163343   14.65643100397264
H         8.66766349075442   13.04986616695323   14.13931003737735
H         9.12094849450907   14.05874868574014   15.51456666147269
H        10.16256939475350   12.72306707157649   15.01679083801226
H        14.61812872070253    8.59346456386204    9.58166822556054
H        10.79003715480338    9.60743597994295    9.51944023151375

