101
CSD_code = POJMOQ | q = 0 | S = 0 | Stoichiometry = C46H45ClO6P2Ru | MND = 8
Ru        1.66565847710798    2.41019912202050   -4.69240656054206
Cl        2.32759851660085    4.45903354200434   -3.65100504908013
P         0.10625661323741    3.42133030999412   -5.98339504787989
P         0.10246948031170    2.19775864830872   -3.07827767572637
O        -0.42690862698842    2.25934298715229   -6.96758823530450
O        -1.31822038786785    3.93888143411747   -5.45432132499498
O         0.37174898570740    4.66138954824799   -7.00702731524440
O        -1.40204820563858    1.77241734212393   -3.48759719761003
O         0.25506972849850    1.15188095576482   -1.83003441453110
O        -0.24155120191347    3.57737285684576   -2.34740353765342
C         2.88524658216765    1.62198592611144   -6.41405418623224
C         2.90418948624745    1.92783907552080   -7.88145556765694
C         3.76595969736463    2.13523792221704   -5.42877867552340
C         4.86696157510285    3.13369230017826   -5.60520101898382
C         3.57052938004965    1.37905826343571   -4.21674652909683
C         4.49567312460342    1.44026605121985   -3.03889074624331
C         2.60805112269104    0.36138181167337   -4.48743793395896
C         2.35796787252660   -0.83707496165246   -3.62445447404535
C         2.13843246150306    0.53541434334814   -5.82669774119238
C         1.34999008269450   -0.47239096165305   -6.60630435172646
C        -1.38744552826359    2.30199590476353   -7.95706772078578
C        -2.08847683483681    3.44186291569852   -8.32003783767886
C        -3.02580945644144    3.37555700383068   -9.33771069629804
C        -3.27107243987244    2.18440775522245   -9.99702872929316
C        -2.57154061720535    1.04659013469518   -9.63073402694170
C        -1.63425424636055    1.10167150553621   -8.61674402596747
C        -1.54651098910433    4.86668032343720   -4.46044789044425
C        -0.64193960371855    5.87047544546501   -4.15858901071234
C        -0.93321312904729    6.76871377751127   -3.14742378541632
C        -2.12495818760076    6.67740918789675   -2.44997874310408
C        -3.03480182835141    5.68437760645721   -2.77081472990978
C        -2.75230602787770    4.77867084203659   -3.77647366225816
C         1.53626856358956    4.99647939821369   -7.65687250475920
C         2.64478709596173    5.45042512979177   -6.95890911686717
C         3.76896411367646    5.85096325329664   -7.66199669348912
C         3.79020538113566    5.79756059908982   -9.04546762054034
C         2.67833380831019    5.34178979589957   -9.73513254423744
C         1.54910465990309    4.93976299499719   -9.04538426420815
C        -1.77390189814603    0.72109999890779   -4.28513894509237
C        -2.71827146307029    0.94304968754259   -5.27996728291804
C        -3.15395090180642   -0.11285488687413   -6.05898279072913
C        -2.65661002693846   -1.38904118031150   -5.85100283577008
C        -1.72490542860917   -1.60860198508010   -4.85076580460684
C        -1.28400250462488   -0.55732191215380   -4.06465695778871
C         1.21634571396950    1.22375385590127   -0.85215961169740
C         2.15204757717699    2.24349705194113   -0.77941422841254
C         3.07313326932461    2.24990568851409    0.25415733585552
C         3.06888443332288    1.24747508090649    1.20800543550053
C         2.13435568087080    0.22814880292626    1.12792650880414
C         1.20770518322690    0.21203453246657    0.10251101735975
C        -0.74721942978190    3.77747381955177   -1.07848125665786
C        -0.16291286139402    4.78854678874082   -0.32638004277694
C        -0.64559898926067    5.06253135327123    0.93876056019692
C        -1.69914586729038    4.32716501806579    1.45771738584029
C        -2.27360503892586    3.31974212213309    0.70299380478879
C        -1.80375669698764    3.04101308359921   -0.56936864851884
H         3.43216347148342    2.85564051143531   -8.08802314744328
H         3.41089435112103    1.11656139249193   -8.40937623737093
H         1.89595278094877    2.01389039594515   -8.28502858908472
H         5.82801222311104    2.64681034049281   -5.42928374014859
H         4.86358861040966    3.55360154472141   -6.60791033821331
H         4.76221706260422    3.94750722436729   -4.88693835144335
H         4.09368838072877    0.88980358492235   -2.19100402090592
H         5.46072715488595    1.00492296332426   -3.31010660391011
H         4.66312172039716    2.47245610292975   -2.73526270247473
H         2.19523640223426   -0.56553991087643   -2.58256527777273
H         1.50189088885469   -1.40250087295487   -3.98328064736764
H         3.23682172998860   -1.48537656465380   -3.66403017039693
H         1.04892846151012   -0.05712708110878   -7.56391075923104
H         1.96766512114891   -1.35485473937357   -6.79315331721948
H         0.45532171789393   -0.78535208993822   -6.07089059219202
H        -1.90632146550203    4.37312686870743   -7.81049679967213
H        -3.56725777180857    4.26826073397653   -9.61383899241433
H        -4.00288246798426    2.14148708283848  -10.78944970105332
H        -2.75536604543144    0.10936173383976  -10.13478629687964
H        -1.09274310698878    0.21914292395586   -8.31549319436015
H         0.29290248606191    5.92721186533864   -4.69418135216488
H        -0.21580474941707    7.53686601366761   -2.90262992450029
H        -2.34363719093479    7.37357786257625   -1.65433157035565
H        -3.96595793086830    5.60581560416801   -2.22952846877356
H        -3.44639456707388    3.99114626975432   -4.02579080152278
H         2.62521120735601    5.48348335961422   -5.87893644478916
H         4.63120030738428    6.21029774325576   -7.12029824241533
H         4.67033363368797    6.11145494375403   -9.58686964486142
H         2.68860792595165    5.29763631606620  -10.81408855761698
H         0.67251180578871    4.58335533694344   -9.56644890811133
H        -3.09310385195754    1.94123714696365   -5.43934119632805
H        -3.88310822388763    0.06517200527677   -6.83502568593750
H        -2.99699108383478   -2.21011716815274   -6.46383047966932
H        -1.33950332635684   -2.60330352386698   -4.67739074651317
H        -0.57357812803080   -0.70966124285784   -3.26745643868687
H         2.16557830582551    3.02321790997207   -1.52729044863484
H         3.79826441034532    3.04752301769548    0.30618618924103
H         3.79005909094261    1.25844121393224    2.01108896733463
H         2.12372631194930   -0.55933065287959    1.86667049067191
H         0.46850984158012   -0.57123916891580    0.02987690607386
H         0.65829662529720    5.34087066326173   -0.75495457512482
H        -0.19410843488751    5.84963749459875    1.52372175200529
H        -2.07175400379595    4.53944178643311    2.44867767012356
H        -3.09595720363653    2.74550959931326    1.10382020666152
H        -2.24996272609939    2.26470644823551   -1.17068167384282

