61
CSD_code = POJPOT | q = 0 | S = 0 | Stoichiometry = C26H30N2Si2Zr | MND = 12
Zr        1.54584880663260    2.33863309713416    0.00020137870740
C         2.02985567946590    4.80145313838750   -3.84417365731588
C         2.55136589445264    1.71304277316661   -4.09361775200687
C        -1.53084308283502    2.35576772469331    3.42238117968690
C         1.49509557173215    2.13436354844467    4.23574461793463
C         3.32832108153911    3.15155391737732   -1.43374712702051
C         3.85079120575995    1.95768027222495   -0.87102347331742
C         4.10662371390688    2.17042130451925    0.49721355950593
C         3.71712065542814    3.49168107871997    0.81270803511552
C         3.24211508225970    4.09371559884215   -0.36974678214874
C        -0.58236220531747    2.81116234438773   -2.14203930462351
C        -1.07864697028291    2.58729676308341   -3.43468728884277
C        -2.43601441226699    2.54752709419776   -3.67885699291707
C        -3.34564484758506    2.73619012656477   -2.65073867679494
C        -2.87567037185756    2.97901109835119   -1.36923734440225
C        -1.51969838761451    3.01976416498316   -1.10919971538044
C         0.56366109784760    0.78282395324559    1.58439685466896
C        -0.17567455145861    0.61073296465790    0.37967320521325
C         0.64730027017363   -0.01960066634779   -0.57513774836520
C         1.90579475728665   -0.24960498752583    0.02531860670054
C         1.85909953438582    0.25729474974353    1.33816052922406
C         0.59240290717478    4.77239332890465    1.57929217398727
C         0.55846509548750    5.51099457756820    2.77118551868403
C         0.49893708429492    6.88937191082285    2.75286458458570
C         0.46270291437704    7.58022608341433    1.55227894338265
C         0.47475264408272    6.86813461506839    0.36279139683200
C         0.53678735445633    5.48828809678452    0.36535232519770
Si        2.11147203567413    3.14426551778829   -2.89096466996135
Si        0.26253118956590    2.23814547402236    2.76642744041514
N         0.75735335219535    2.84899838032883   -1.84838138396892
N         0.66284718559805    3.40271888616556    1.54530796531978
H         1.91710331513238    5.64304473705529   -3.16793581119730
H         2.92659910668547    4.96353631225986   -4.43173287449700
H         1.18276406543755    4.81024331522134   -4.52193504643920
H         2.30502272762491    0.74583744937860   -3.66150187411128
H         3.60947812884938    1.71317619599596   -4.33288630653110
H         2.00958162445627    1.80270520726665   -5.02914236812673
H        -2.25366259317912    2.29268477061199    2.61513644470256
H        -1.69002141476934    3.30050917810358    3.93127084084409
H        -1.74628347861201    1.55948001969508    4.12602492486792
H         2.51411199209495    2.32948555884340    3.90907678065519
H         1.25337189580043    2.85783706976648    5.00711341345268
H         4.13586436473032    1.07938289643416   -1.44024347451126
H         4.64561480221492    1.49911146352368    1.15581197547650
H         3.89383639860145    3.99888556710635    1.75501610674713
H         2.99885116043772    5.14382811516708   -0.48185572279639
H         1.47332609575204    1.15260098575246    4.69678098965796
H        -0.37292825317079    2.43999812704715   -4.23916694412645
H        -2.79012028282666    2.36659091957160   -4.68391598979706
H        -4.40632805537753    2.70251795513553   -2.84655161734348
H        -3.57685775268120    3.14498717942110   -0.56311744666516
H        -1.15804271410003    3.23915645106698   -0.10223923523662
H        -1.23811723782092    0.79201125583368    0.26638525203920
H         0.32491188225308   -0.39620141435098   -1.53988869323515
H         2.70601797554181   -0.84504037490439   -0.39907653696963
H         2.63170653104383    0.14049046824897    2.09043916276105
H         0.58600820068598    4.97661863611376    3.70958354884365
H         0.48144511250466    7.43296263050397    3.68693079822501
H         0.41792922327170    8.65839527527539    1.54330078814977
H         0.42904370045343    7.39650209997356   -0.57945521729497
H         0.51938319440962    4.93441501916484   -0.57567226563961

