100
CSD_code = POJPAG | q = 0 | S = 0 | Stoichiometry = C45H51N2PPd | MND = 2
C         9.71741262300076   18.33970989279321    1.67390898678861
N         8.65697536185287   17.90270476292014    0.97463288059566
Pd       10.03988067837838   18.99880379604245    3.63056589910353
P        10.47739077219649   19.51115948566904    5.77350384124503
C         8.96002008899440   17.82221589517291   -0.36438889228001
H         8.24740045821152   17.49184293268864   -1.09236902523096
N        10.68640265963689   18.54182124541634    0.76387526464353
C        10.24338799762347   18.22959622390317   -0.49836801522307
H        10.86486162696324   18.32299483811067   -1.36552482473576
C         7.40561204807508   17.54479659425273    1.54724867032237
C         7.14605246226674   16.19321124617334    1.79652256981384
C         5.90320897653070   15.84690854090031    2.30434792120877
H         5.67247740145623   14.81357671704901    2.50764344443486
C         4.95445131712940   16.81760088729349    2.56840320834248
H         3.98898046101884   16.53177722997675    2.95982202354698
C         5.24749969593742   18.15141378405794    2.36733064411774
H         4.51257522192573   18.89920109166966    2.62046272305736
C         6.47811765284073   18.54177896905709    1.85395300193378
C         8.25302403001601   15.17823361560117    1.63344562209433
H         8.91184680134738   15.49803367240215    0.81829679318609
C         7.75919540318419   13.77247365241920    1.29818166679237
H         7.24812445901235   13.32062902386390    2.14456977031796
H         8.60648249266126   13.13862349933243    1.04440183852535
H         7.07930431641353   13.79402569199240    0.44882288792743
C         9.06300936556458   15.17499012281316    2.93569895367253
H         8.44196244398580   14.82679277027107    3.75857659256150
H         9.40960115365504   16.18770845841505    3.16961512733450
H         9.92637582776020   14.51944459292950    2.84660944959776
C         6.82985985527908   20.00451541681658    1.72733932639003
H         7.71483638823836   20.10534514912815    1.08947697756610
C         5.70836670704418   20.83110710326775    1.09766013153368
H         5.38334098601097   20.38709777338303    0.15852907683877
H         6.06376566711294   21.83969297307596    0.89650302132420
H         4.85030585796380   20.90564755157388    1.76053838474574
C         7.18854077462141   20.52932023609860    3.12305676450272
H         7.44177566000693   21.58694673752969    3.07411604173320
H         8.05688715778211   19.96092720221776    3.52405023593506
H         6.35186809715179   20.40282491031100    3.80738061196934
C        11.98030056532084   19.04515193427615    1.07896167177167
C        12.98580506286739   18.15817141357737    1.47805190428683
C        14.26695455364519   18.66150670486308    1.66226681018373
H        15.06195994508047   18.00068453628619    1.96927298207089
C        14.53725457686515   20.00128502442087    1.46108326268830
H        15.54607043008339   20.37009336962928    1.58074821360910
C        13.51694362828390   20.87784103637775    1.14244514449637
H        13.73253132190318   21.93007767315350    1.04809368702606
C        12.22164591705758   20.41857969336134    0.95098075030589
C        12.65960123212242   16.72414151210490    1.81995440937986
H        11.71257685569740   16.45052615820560    1.34289799368450
C        12.46687114259973   16.65183153040299    3.34056406357620
H        13.38470748885848   16.93156408637261    3.85455978197418
H        12.18899172129315   15.64569046566864    3.64602470458571
H        11.66321889086776   17.35265363440329    3.64802142198820
C        13.72213003915826   15.73232986732359    1.34848623656685
H        13.94460613061903   15.87792578379791    0.29304556246442
H        13.36080608263612   14.71550322725778    1.48710709153956
H        14.64320128962162   15.83792928312359    1.91567795951820
C        11.07240483770460   21.37584192562942    0.74049788326047
H        10.25428209245267   20.84598435945803    0.23999168329242
C        10.58466204656433   21.81550645046011    2.12818503993456
H        10.32438763296001   20.92099812079581    2.74206403462866
H         9.70721687467286   22.45274854102975    2.03385832016277
H        11.36861601863540   22.37009765690884    2.64264486263191
C        11.43231058319037   22.58467726574483   -0.12212068050617
H        12.10396432799463   23.25948702430397    0.40236688245575
H        10.52968521178250   23.13974525623278   -0.36938966895848
H        11.90709681700259   22.26978599591397   -1.04942751688720
C        12.01796724064966   20.46724299631429    5.93112288506934
C        12.87774590037170   20.39794990647911    4.83976096265096
H        12.57667424164244   19.81184226787551    3.97076945668523
C        14.08335594596596   21.07330551799763    4.85922535867737
H        14.74760175305821   21.01472312578219    4.00974246729034
C        14.43039187157538   21.83013213599639    5.96658171815368
H        15.37081027658331   22.36225191649918    5.98550050073682
C        13.56859865799284   21.91634989701160    7.04876480671600
H        13.83814335010251   22.51677683153426    7.90630738165046
C        12.36274005826887   21.23889028639779    7.03448207890216
H        11.68308913896678   21.31823293178257    7.87264905597668
C        10.82419685801225   18.00762797470690    6.74150774028994
C        10.15171668124528   16.86661288044473    6.31426793554709
H         9.48201945058215   16.95049055188465    5.45794423864691
C        10.34123999397185   15.66012063022739    6.96058867790147
H         9.81695029364878   14.77602115684819    6.62730031379677
C        11.21587574430594   15.58612096540559    8.03304984313389
H        11.37395984642022   14.64416148963622    8.53846613276087
C        11.89694110507767   16.71707157656422    8.45448645371054
H        12.58385611698915   16.65354424451146    9.28673880850666
C        11.70433199869412   17.92817692359857    7.81338532473145
H        12.24286094951399   18.80761178868341    8.13860441942034
C         9.36330369125264   20.46041451946284    6.85644646586341
C         8.87327668328570   21.65078132214904    6.32544591825287
H         9.17192587253636   21.93723518966234    5.32329156482342
C         8.02051843918392   22.44684832129535    7.06404629267882
H         7.64529014591671   23.37168238374965    6.64971217781534
C         7.64065464469224   22.05303719922713    8.33804177692765
H         6.97177495002927   22.67198089742617    8.91846934920953
C         8.11224637486906   20.86217353981893    8.86439801890447
H         7.81059318505924   20.55313079093460    9.85528045501100
C         8.97052598644714   20.06382059273755    8.12791059416330
H         9.33393828673331   19.13248342970686    8.54005673743074

