94
CSD_code = POJPOW | q = 0 | S = 0 | Stoichiometry = C40H44CrN2O6Si | MND = 6
C         0.99592535521461   15.38564479064699   10.65933756644170
H         0.23398056924308   16.16164545567085   10.67099374134636
H         0.73228239149292   14.63884903394135    9.91289724108964
H         1.94023190952674   15.83895764700412   10.37106007819884
C         1.50366433453803   15.78392770117919   13.09253739269684
H         1.50388988424191   15.33199229325292   14.08126840857993
H         0.80627555618882   16.61777217258885   13.07407954041509
H         2.50115644674407   16.16721950542172   12.89663071179705
C         2.24637642477504   13.67817248926184   11.99304224921603
H         2.01089163448037   12.90250232329359   11.26832433317081
H         2.35482494289277   13.23038259198346   12.97918143758767
H         3.19394387169171   14.13221861090192   11.71786499469266
C         1.14486048940767   14.73167644223990   12.03844093644376
C        -1.31244691472070   14.46518246735115   12.54725637740271
C        -1.76718617041970   15.85938613343327   12.47257910147468
C        -1.67146666224239   16.69266602605889   13.58249858029092
H        -1.26112355170083   16.31154391486066   14.50527656387320
C        -2.09703017644623   18.00701965167307   13.50291563317701
H        -2.02043483574883   18.64493683779675   14.37018179989426
C        -2.61256057153399   18.50216845095292   12.31707011578875
H        -2.94004325292510   19.52860737678111   12.25649078806040
C        -2.70622725640269   17.67750117170345   11.20813432738637
H        -3.10630000933401   18.05885751078740   10.28098504584577
C        -2.28903977395617   16.36068934988513   11.28272728569278
H        -2.36958510493598   15.71689291535667   10.41926672103120
C        -3.40876509118552   13.28531867184774   13.26599078967338
C        -3.78669111157989   11.80406601187058   13.25153388917247
H        -3.16501214433021   11.25062175638211   13.94869688576432
H        -3.65677649650224   11.38032831461153   12.25887821393489
H        -4.82562969346857   11.68210725187746   13.54523640689168
C        -3.43695381106347   13.79353780663921   14.71313510545786
H        -3.24840879406481   14.86370375583563   14.74995874602116
H        -2.67969672952004   13.27923259215368   15.30040592349414
H        -4.41129008475694   13.60057911803313   15.15375286635515
C        -4.40943840486915   14.07853918755296   12.41677176897408
H        -4.34524635106502   13.79072371956376   11.37024979023679
H        -4.23549357909147   15.14783157507764   12.49469576719815
H        -5.41784161611962   13.87315284081090   12.76631430020518
C        -0.30365140973402   11.18898166246677   11.26074687247152
C         0.60653835178259   10.12126086876227   11.37018832372518
C         0.73564582537077    9.21873964162999   10.32498063307562
H         1.42958365258044    8.39707393640078   10.42801844513160
C         0.00425212234212    9.33868742310954    9.15345830990334
C        -0.84524264803210   10.42639163027402    9.02835738794748
H        -1.39895128681285   10.56117683070661    8.10960547324418
C        -1.00301135424853   11.34761346172742   10.05186208237747
C         1.46536934010995    9.90382273269036   12.57484764366825
H         2.35713414812392    9.34472062553767   12.30271938077764
H         0.92861597778748    9.32804525794420   13.32800307747601
H         1.77387812613222   10.83638037953666   13.03519498267643
C         0.15984287265541    8.33763691167879    8.05269532609903
H         1.16094934183065    8.40118613851602    7.62751972296267
H        -0.56415144790239    8.50963307610825    7.26038883849144
H         0.02813620100568    7.32790875444460    8.43741067815071
C        -1.91780150614163   12.51169666661873    9.81578875101229
H        -2.23617993391110   12.53831235766477    8.77581976172718
H        -1.41588618146243   13.44807001792599   10.04834623673852
H        -2.80371887328427   12.44004703187475   10.44242674955832
C         1.43761562948221   13.43065425283557   15.86272399242464
C         0.53695949825554   12.78026842895786   15.24660598087372
C        -0.19129879263877   11.88666533433266   14.53506605709123
C        -0.62535149365252   10.63398362830808   15.14635956766825
C        -0.37470584482755   10.38848716179050   16.49977793668079
H         0.14225727390659   11.14071444824219   17.07909664845740
C        -0.76436996859564    9.20455761955238   17.09061546719984
H        -0.55094616049115    9.03344409387451   18.13557386166690
C        -1.42262962471129    8.23403597294238   16.35136799606938
H        -1.72662267100256    7.30716996714497   16.81405024633260
C        -1.68140713813806    8.46291001155965   15.01052981481105
H        -2.18815163755932    7.71213360567003   14.42055188533424
C        -1.28853600830620    9.64644765470288   14.41481166912077
H        -1.48157950970815    9.80133520269381   13.36140661947243
C         0.05165434877921   14.98170858534148   16.94965863714362
H        -0.38131515779584   14.28242259527845   17.67989712663186
H        -0.58031103066448   14.94685930941262   16.04708465366015
C         0.11449260243748   16.38610353303797   17.52538193988448
H         0.53462740256977   17.07194456929242   16.79327726288344
H         0.75310191657469   16.39105518501457   18.40422449703365
H        -0.88052166071261   16.72248979147743   17.80593432866649
C         3.39441576679411   13.03352859108246   17.89185431073362
C         2.97977699442562   10.86814515790622   16.34630071682077
C         4.14830393615840   14.32733511285129   15.61549038136380
C         3.91684244522853   12.03891617060892   14.35854952631084
C         5.22279911077394   12.10587260678629   16.39796772158528
Cr        3.49720059652384   12.63683106655979   16.06299853931759
N        -0.07279161404134   14.02856288526068   12.39794396865071
N        -2.05563152882678   13.38630202590011   12.74557428476496
O         1.36402960067108   14.56614386136962   16.61327256317582
O         3.52478744884826   13.18018513474812   19.02504568004230
O         2.87058637404165    9.72465555399649   16.44544526039144
O         4.68721759820835   15.29181623772515   15.28801783529234
O         4.40424678228601   11.54924499581408   13.42781053329091
O         6.31070021432639   11.75172901780578   16.57302718689798
Si       -0.54001263926497   12.30589975821694   12.76656520007840

