55
CSD_code = POJPUZ | q = 0 | S = 0 | Stoichiometry = C24H28Si2Zr | MND = 12
Zr        0.29617262718434    2.87674732600215    3.75781405057445
C         2.67611519236687    0.21984759474721    0.87316198743314
C         0.52505266806060   -1.72255642994271    2.04970417349102
C        -1.23479141683404    7.17615397217996    3.31219190997205
C        -0.13119123587637    7.09325393764435    6.23766291799074
C         1.78294395253008    0.55605960984804    3.87374905182343
C         0.80474421929715    0.91429120666490    4.88883398288417
C         1.54049296951401    1.18992951040209    6.07705557293375
C         2.88980012651446    1.05427678908073    5.80472712692816
C         3.03787676740949    0.66356116263943    4.46518337766221
C        -0.06426540288099    1.35167665602058    1.87629950601121
C        -1.30663641235430    1.41591966671789    2.57172873978667
C        -1.88484503232025    2.67673232658548    2.33401315365113
C        -1.00134409919074    3.41781982208063    1.52409364119333
C         0.11126584649824    2.60361395467909    1.23940064259185
C         1.06179701364439    5.18347238094998    4.05591756826709
C         1.39313122885274    4.91222160574058    2.70667302550977
C         2.44011379200659    3.97157786908749    2.67652075276407
C         2.77689054279298    3.65507200236133    4.00774900136288
C         1.92117546569112    4.37868151430785    4.85900976145328
C        -1.53279623343806    4.52825942194961    4.99005344293367
C        -0.97848125522777    3.35072913772613    5.63931360441565
C        -2.05016333643037    2.42189011740368    5.77145436040192
C        -3.18526033861642    2.97054306872014    5.20221771700133
C        -2.87241800390263    4.25457519764855    4.73098905320789
Si        1.26410660250806    0.03764736211793    2.14549833435701
Si       -0.49329526032920    6.05895073768414    4.67153679071712
H         3.41394057515535   -0.56054950691799    1.02029919510372
H         2.30400335962854    0.13157721871181   -0.14193232110124
H         3.18590203385609    1.17388124344168    0.96372267164133
H        -0.27738708334003   -1.85986793127821    2.76750320494964
H         0.12552738710034   -1.93021552086578    1.06226761953565
H         1.28525576507532   -2.46629189353126    2.26343178149785
H        -1.54541681550139    6.60735859828306    2.44142522245817
H        -0.52142476720236    7.92621540668351    2.98787062166618
H        -2.10699746969194    7.69630968862617    3.69135031393610
H        -0.19218719477104    0.46888630017936    4.91625346041301
H         1.11058984382633    1.38873997547497    7.04927109761304
H         3.69465022407095    1.21498563105684    6.50153874369213
H         3.97611457022803    0.47933635136312    3.96895521752540
H        -1.04301460809404    7.54377646828272    6.61495222379408
H         0.57272155480293    7.89256514090722    6.02943927198881
H         0.28542764341861    6.48356659790361    7.03307830541510
H        -1.80643438486769    0.57871664971947    3.04678855418862
H        -2.89302713106739    2.96718007049058    2.58745497757700
H        -1.22404872033998    4.37740237386470    1.07478177643814
H         0.89927341732033    2.83450836239891    0.53307150140004
H         1.00381272109403    5.45227284294534    1.85229685882732
H         3.00055169602604    3.66532434428099    1.80222409798269
H         3.64120729150541    3.08653112664631    4.31558919121203
H         2.02473833497802    4.44916527499408    5.93635439089785
H        -0.17709563674707    3.41850680150866    6.37827680838282
H        -2.00335297116882    1.48154624939064    6.30354127825434
H        -4.15019928802068    2.49780047607838    5.13466232564503
H        -3.55952133475442    4.92412413832377    4.24097836174409

