118
CSD_code = POJPEK | q = 0 | S = 0 | Stoichiometry = C45H69N2PPd | MND = 2
Pd        2.52609218096137    6.20335294294128   14.53736113006623
C         3.84251344705866    7.82581859773319   14.61939883687674
N         4.77482022145025    8.23938686753835   13.74146082073960
P         0.75623851596969    4.81020681377206   14.24999139854277
C         5.65986911340569    9.10216308922059   14.34333433699239
H         6.47778881293705    9.54513002214725   13.81224215390725
N         4.15719770474481    8.42733289698988   15.78045567867180
C         5.27040547687051    9.21912535512570   15.63416268183290
H         5.68239449024345    9.78464925169221   16.44501057002233
C         4.78612578259027    7.84221752057890   12.37628482529536
C         5.34326539991948    6.61127090099494   12.02450919979404
C         5.30099925933926    6.23221314687792   10.68849300310970
H         5.70812222273736    5.27865312431175   10.39057644020579
C         4.73470188898111    7.05506130899703    9.73578550836212
H         4.70858756982056    6.74350229903770    8.70152295143229
C         4.18870837372622    8.27147961953993   10.10080904884657
H         3.73534325486536    8.89534982165994    9.34714410378449
C         4.20629545010702    8.68635796782180   11.42394089723218
C         5.92899594781875    5.68615266507395   13.06476773149573
H         6.05660430817807    6.23938924828988   14.00173694545391
C         7.30205392130588    5.15241805586103   12.65314456206345
H         7.22593689275028    4.47168890694381   11.80924070900525
H         7.75040191286022    4.60979517245279   13.48298552299932
H         7.96566701232763    5.97028415372668   12.37806785933483
C         4.93869998686668    4.54554575701282   13.31962278113096
H         3.97110753607919    4.97601332489679   13.67086937554044
H         5.33140301048082    3.86653057837318   14.07509406925746
H         4.76453939976706    3.98448701317466   12.40286424254838
C         3.52744207549711    9.96341640726354   11.85905859492940
H         3.97775147653277   10.30065623262908   12.79882894674738
C         3.66737587200328   11.10249469554824   10.85062041404823
H         4.70975404412118   11.24295466494287   10.57136886946410
H         3.30047623480971   12.02798924811112   11.29010791099881
H         3.08891981068190   10.90921534564452    9.95070333173206
C         2.05393976076684    9.64167319890637   12.12373760091674
H         1.55349292319789    9.39522194334616   11.18982196875594
H         1.55120098233899   10.49625959386916   12.57071065275815
H         1.97370523704064    8.78548927211824   12.79865818485132
C         3.42273053477555    8.24549373245413   16.98593933539444
C         2.31379379638525    9.05939861485812   17.23676945377383
C         1.64822632380610    8.90707158970275   18.44521543132801
H         0.78643796296836    9.51745068804806   18.66357237389378
C         2.06983685069928    7.97334310596238   19.37238012198588
H         1.54783132601732    7.87523443464248   20.31331926291679
C         3.13637507673556    7.14267193812838   19.08835510871155
H         3.42535917278719    6.38841777597367   19.80300953162963
C         3.83056515605801    7.26137588319439   17.89209499998348
C         1.78723905686940    9.98656292498733   16.16789683983146
H         2.58773039081888   10.19626714382900   15.45079636147948
C         1.29445572147556   11.32442313069736   16.71739265217460
H         0.39244794754587   11.20242074334139   17.31135963755873
H         1.06308757584074   11.99714750225340   15.89386620947087
H         2.05813770759532   11.78955685122445   17.33783437721965
C         0.66666104871572    9.24440467432417   15.43155675960855
H         1.05198332760132    8.29105730403985   15.03219498801904
H         0.28326266056128    9.84452340958659   14.60981394454075
H        -0.14963508043629    9.02911772501110   16.11687974566965
C         4.90993962027017    6.27399842189474   17.51716241833842
H         5.53246339591985    6.70814130418628   16.72698428103958
C         5.83155409970106    5.90780617814264   18.67989355242598
H         6.22715514937254    6.80346905692232   19.15490248919116
H         6.66734949832876    5.31560686705337   18.31270409590211
H         5.31033173393361    5.31837061454666   19.42978012401019
C         4.21014133591201    5.03202679986019   16.95095812395580
H         3.60560217862019    4.55937430504316   17.72372875152386
H         4.94530145206802    4.31362960852838   16.59192231498474
H         3.53913450523606    5.33283815189429   16.10910189181215
C        -0.60873995556133    5.38215419533456   15.38372719684812
H        -0.93677696063123    6.33094664320649   14.93859379381991
C         0.00098629675766    5.74100279061795   16.74337897382240
H         0.34114724829501    4.84329508585726   17.26216214524056
H         0.88120664599288    6.38616418129021   16.58468120026115
C        -1.03569474120445    6.44038565542743   17.61427684502208
H        -0.60266930511008    6.68008559388846   18.58771645698113
H        -1.34021577575670    7.37740331037914   17.14279703270193
C        -2.26442429889595    5.55058984827569   17.78863764187910
H        -3.01215230960982    6.05997864136946   18.40113582801630
H        -1.97617370217448    4.63380276687689   18.30906923596762
C        -2.86426030244918    5.19151706329533   16.43131223017865
H        -3.19871002501980    6.10447423353054   15.93189262036621
H        -3.73649436342330    4.54762213760072   16.56867806975713
C        -1.82906264694140    4.48466941567518   15.55673818389401
H        -2.26628411630868    4.24586807694041   14.58351140686506
H        -1.54557070533061    3.54728445034022   16.03875127897331
C         0.73603690396462    2.94499002706325   14.41033619080677
H        -0.29679855610860    2.59629057239867   14.28984205788408
C         1.26552116801420    2.55545742305330   15.79053541689314
H         0.62870867755065    2.97281745365296   16.57094726582088
H         2.26574672563380    2.98385450818937   15.90939815934916
C         1.33149610694380    1.04191443619590   15.96992857408492
H         1.72556119884209    0.80642426900600   16.96157183606891
H         0.32271876080472    0.62487832461727   15.90436815049721
C         2.20699110651044    0.41213516307545   14.89405852087368
H         3.22794901373925    0.78844499929488   14.99118967320842
H         2.23450769765928   -0.67298978094047   15.01655797226332
C         1.66350713479784    0.77475529821406   13.51766085331984
H         0.65762321417843    0.36123183663401   13.40586837179559
H         2.29199038412503    0.33720603134759   12.73831084020669
C         1.61115803824745    2.29042226669285   13.34135940579620
H         1.22568638755037    2.51315021984430   12.34538635345034
H         2.62369419919892    2.69631498561550   13.41885177405190
C         0.13185176464752    5.03627241739166   12.49927326187396
H        -0.37927147878424    4.12749232155235   12.15707330461593
C        -0.80632764315138    6.22989650600608   12.34140957680347
H        -1.72934731468095    6.07053879889401   12.90275883869090
H        -0.30777143311606    7.12203734644604   12.73580202012669
C        -1.15867962506323    6.44933349743129   10.87128567056308
H        -1.68462051508815    5.56860470273856   10.49249897726177
H        -1.83363416797323    7.30392073006409   10.78026727386188
C         0.09471761420280    6.68499688131759   10.03610195677049
H        -0.17468185873612    6.82041000747605    8.98586573638128
H         0.58904973849233    7.59547012627961   10.37835983519552
C         1.05690502031499    5.51355243440203   10.18854346366283
H         1.97586238659704    5.70952457915568    9.63131754301613
H         0.59852487559823    4.61028559240572    9.77523180449835
C         1.39042521759573    5.28945759817231   11.65738117507087
H         1.89909203457708    6.18239879391460   12.06656519193911
H         2.08365920295700    4.45021803692088   11.74835377457142

