32
CSD_code = POJXOB | q = 0 | S = 0 | Stoichiometry = C9H16N2O4Pt | MND = 4
Pt        1.27493769265188    2.50217658262893    0.84450159921059
O         1.78465829110844    3.99602594260654   -0.39932122535106
O         2.80532643004518    4.56061160805320   -2.26060941959803
N         0.98660815922381    4.09820575289218    2.19249051533515
C         2.58187075899777    3.74901440499474   -1.39082301847010
C         3.28867804517245    2.38366995036085   -1.37269313507890
C         0.04925756185370    3.95806450059438    3.31967927816739
C         0.76202856459298    3.31186119654174    4.50873576463342
C        -1.16116574634194    3.11630090134746    2.87241199467516
H         0.63079148020026    4.78107630593205    1.51759270324324
H         1.88348423113875    4.46304840382441    2.51782297941601
H         3.80448861193887    2.27920767726092   -0.41004442261027
H         4.00590777806213    2.34223100113782   -2.19146630265497
H        -0.29331431553531    4.95573668160108    3.62837780352318
H         0.06603393442010    3.26792632316849    5.34650002166521
H         1.60243390270762    3.93563157285158    4.81842346084441
H        -1.13305300326658    3.03055758023093    1.78012282461749
H        -2.09108861359534    3.61834699803559    3.13767020738976
O         1.45119759102540    1.06056481349806   -0.54387458045192
N         0.63012328084621    0.88921847346670    2.03191950283698
C         2.29595346575567    1.21759966089050   -1.51358833834462
C         1.27080264190063    1.90950641076881    4.17313408524462
C        -1.16243230428504    1.71826110960202    3.49268567661824
C         0.21772507333102    1.06168671361135    3.43391193386158
H        -0.12627606032685    0.47845110472168    1.47855933071201
H         1.40914039025163    0.23036757154862    1.97107815830718
O         2.34677328703281    0.46155625006049   -2.45771092535025
H         1.57588852206513    1.41609348155064    5.09564412006382
H         2.15525210351079    1.98899161728682    3.53413575671119
H        -1.88773414740808    1.09341386431668    2.96945494001987
H        -1.47302369485059    1.77069654845856    4.53658251609375
H         0.14522608777525    0.07369899615860    3.91089619472118

