50
CSD_code = POJYAR | q = 1 | S = 0 | Stoichiometry = C22H19Cl2MoN4O2(1+) | MND = 8
Mo        2.01681270791111    2.48117486057753    2.58741254512095
Cl       -0.97258578248784    8.37278057956369    3.01372980844251
Cl        4.79311620478590    6.77663395834324   -1.63374857032890
N         2.85632284207838    3.64642150255670    0.90203759982332
H         2.56928826607098    3.27763599145348   -0.00831230260637
C         1.66406925039953    1.83902886945613    4.38621774150015
C         4.21399344512535    5.69570063585120   -0.42428311856463
N         5.61664685718567    4.61208659857015    3.00401089594874
C         2.97551799386348    6.02082891736332    0.27651145191096
O         1.57984068795831    1.49809235948871    5.47803905831715
O         3.92853693000695    0.07018122792028    2.41102835109516
N         3.67878346947181    3.60991785221756    3.28774987099298
C         3.20698490576456    0.95496764940843    2.45881299612924
C         1.33021490809165    5.27141200135776    1.90366762777601
C         4.12926252709915    4.01218211147446    4.50506543221497
H         3.57720099358684    3.82237128232002    5.40531352500680
C         4.59114843802786    3.98363692565990    2.39952425972801
N         0.93745993603293    4.27043727557262    2.73926236225598
C         0.02453011867694    4.56838415533818    3.64577546785038
H        -0.23749023212842    3.78317577036956    4.34148507314530
C         5.33251015767118    4.63578892763681    4.33895330334267
H         5.99460741613331    5.08026383077101    5.05252554488061
C         1.34924176620394    7.58228004747814    1.12235181786748
H         0.92665499216867    8.57342469843724    1.15291369591540
C         4.32506238465291    3.65579091066134    0.95626833230990
H         4.68060318240530    2.63432875519714    0.75318546000527
C         2.42930413488372    7.31439467698149    0.32665146838251
H         2.88311214438277    8.09403816297482   -0.26331443843726
C         0.80094576496264    6.59170553725146    1.95948186689742
C        -0.22809578155999    6.83327773444250    2.90496524951718
C         6.80945060724429    5.12856302001868    2.38714425554238
H         7.43379829772438    5.58496630804943    3.15192452181971
H         6.55770164382451    5.87854744316952    1.63661924497887
H         7.36968850899599    4.32342062048691    1.91007434717407
C         2.37605479837092    5.00263647511960    1.00627794129626
C         0.04907335168344    1.69162896710620    1.78133642628614
C         4.90241380926950    4.60430778766167   -0.06626644504499
H         5.84578399493566    4.35336016160618   -0.52056362547024
C        -1.09054520483407    2.57212165406802    1.36079116592284
H        -0.80597551092848    3.24901168202542    0.55377218871632
H        -1.89024647459105    1.92957332797763    0.98568246812070
H        -1.49812894320554    3.15102743003067    2.18843192232857
C         0.15108983636659    1.16240094960032    3.10639679144024
H         0.41093818396652    0.10857602628147    3.19368990570748
H        -0.65729155561284    1.44078688510030    3.77979155719278
C        -0.59505278931294    5.81268322837133    3.75459935992679
H        -1.34967620832216    5.96855201267638    4.50761812454979
C         1.03267906356520    1.26394896489411    0.88088733436915
H         0.96099557764516    1.64637464321034   -0.13616700898714
H         1.36404838378263    0.23156860584289    0.91827714767959

