64
CSD_code = POKFUS | q = 1 | S = 0 | Stoichiometry = C32H24N3O3PRe(1+) | MND = 6
Re        7.34357651350614    9.96538925795590   21.85468302361789
P         9.07971262764289    9.49900060360568   20.10086225983716
O         9.22810515569535    9.24272044449401   24.21182930756216
N         5.97311889538295   10.33981246138895   20.24287104172420
C         7.93651231410611   11.84141647910591   21.96374577156081
C         8.54661440057635    9.47321323658593   23.32381116423060
C        10.79041791233191    7.55655494700859   19.08539943331147
H        10.76664730366698    8.13846106260648   18.17455384671455
C        10.10583779405125    7.22272645918877   21.36928785806232
H         9.55134847531195    7.54751986304568   22.23754712835262
C        10.04405141473099    7.95794262337846   20.19243753561070
C        10.42387696565921   10.71680907493886   19.97370572538767
C         8.31648482479172    9.44722095060482   18.45506568427824
C        10.87812945833341    6.07609241133721   21.43158524815266
H        10.91595417173764    5.50805270538293   22.34835972120311
C        11.60038733622993    5.66671179236144   20.32404614965742
H        12.20224601725139    4.77253204264745   20.37159408467342
C         7.96708434761252   10.64900133752117   17.83937839571780
H         8.23691295693718   11.58760328734559   18.30772915774533
C        11.56053163144049    6.41198200159932   19.15481159181599
H        12.13523985110342    6.10170159443935   18.29553787432690
N         6.62552092585875    8.08871218342272   21.28919534403783
N         5.89134394617803    8.01197817954306   20.24712232238137
O         8.22947267059684   12.94023122665400   21.91647656337262
O         5.04327474315027   10.43008551695262   23.88558363158366
C         5.54800304787342   11.49369348876390   19.73721315930811
H         5.93012898727835   12.39494286203138   20.19827909183922
C         7.14448188207772    6.69986902551984   23.20068417906460
H         6.98162504943604    7.54779222287922   23.85306045406723
C         6.95697157864060    6.84098335017562   21.82191149843015
C         7.09199122834861    5.72680738032286   20.98686277408665
H         6.93395375716639    5.84794730750264   19.92599229525457
C         5.89884600383720   10.28060825878405   23.15252717164569
C        11.00279716064929   11.06558617845488   18.75775537509719
H        10.61857727526190   10.66510123157949   17.83005748351739
C         5.50162536910166    9.19501599693342   19.69821499098091
C         7.29159691436820   10.63697957593142   16.63401577767034
H         7.03785918343766   11.56886429927272   16.15183036673677
C        10.93797147166400   11.23166230443482   21.16093109569000
H        10.49157702116892   10.94325129212691   22.10597205504425
C         4.65822583522962   11.56682833093562   18.68122031815451
H         4.34233424328589   12.53031290116774   18.31678325827271
C         7.48128526818199    5.46842414454615   23.72408266981650
H         7.61118891170285    5.35978157857076   24.78942361514282
C         4.60992186623005    9.18609440124376   18.62188217007433
H         4.27535357248177    8.23719860962463   18.23779170049499
C         7.94587675895212    8.23892507362858   17.87081303792224
H         8.20367551435014    7.30560833393120   18.35273760611760
C         7.45031857035188    4.50668573926005   21.51976312820529
H         7.57363722827290    3.65446055673813   20.86979833315053
C         7.64985780451708    4.37440057437364   22.88656843402790
H         7.92876421454396    3.41786784407345   23.30014487838877
C         7.26567021780243    8.23513413904478   16.66621883339200
H         6.98990909341244    7.29641044723963   16.21058096193487
C         4.18440772011898   10.39143632196708   18.10729024954631
H         3.49213104347851   10.42313475608084   17.28117345068114
C        12.07139499256769   11.94390944430958   18.73603815830398
H        12.51385616817192   12.22046209816882   17.79111449038953
C         6.94018938237477    9.43068647022198   16.04683782242045
H         6.41406118684059    9.42406483691662   15.10491364749423
C        12.57321098337881   12.46511228725494   19.91742538312776
H        13.40515003767953   13.15154345450068   19.89213492120608
C        12.00908334302935   12.10457155226683   21.13099329975998
H        12.40178745885214   12.50446958591858   22.05294199866638

