28
CSD_code = POKGAZ | q = 0 | S = 0 | Stoichiometry = C13H8BrMnN2O3 | MND = 6
Mn        9.94214342535910    7.45090772260120    5.86040524070258
Br        9.99595097204839    9.72521056157128    6.84838555552434
N        11.48420234730667    8.07636870218897    4.71653520227061
N         8.93249580864908    8.30254394538468    4.33376282090732
O        11.52317645750844    6.52412073268519    8.15277407960922
C        11.13846660242858    8.84437655613226    3.66355373204417
C         9.69667257124974    8.97080892787488    3.44627064906671
O         7.62928741268534    6.87211416004231    7.57211172028963
C         8.51025161852033    7.09758065238680    6.87121946021450
C        10.93406049721150    6.87837453311576    7.23328425877891
C        12.09706609519268    9.46574662798827    2.86371096458642
H        11.79705383089744   10.08348784401336    2.03376943458334
O         9.88838066924381    4.79146675934148    4.64273455552257
C         7.76110969349426    9.79071039821886    2.29146860418150
H         7.30853464149952   10.37377179534822    1.50472584477230
C         9.91018386734584    5.84200142785938    5.11105487805539
C         9.13456463375072    9.72278825718379    2.41508464979380
H         9.76490972006863   10.25546000031025    1.72270666509893
C         7.60801702474581    8.36958028337041    4.19983190725697
H         7.01625410107291    7.82413202426706    4.92428478695225
C         6.98157667146124    9.09492546378291    3.20405583129829
H         5.90527245160856    9.11625120175473    3.15249033931990
C        13.78533831382363    8.49523340828762    4.22749996547540
H        14.81685621074973    8.33002488493547    4.49246683194135
C        12.78104286977342    7.91148587713625    4.97638957443037
H        13.03317655117422    7.28950367353389    5.82613601287702
C        13.43718272994268    9.29435887691186    3.14830383384215
H        14.19237221118694    9.77386470177262    2.54538260060424

