152
CSD_code = POKNEK | q = 0 | S = 0 | Stoichiometry = C60H85CuN4OSi | MND = 2
Cu        3.53802393961565   17.99623227087638   16.77055853250879
O         3.06403403492638   15.14083518623130   18.49988783717071
N         3.95714209925925   14.59071015599377   16.10592039618691
N         1.33550509222255   15.07180340589455   16.45833520440120
N         4.34287750037021   20.63859632343630   15.59647752302381
N         3.53859931508663   20.85331749984906   17.58503509692758
Si        2.90853788615080   15.76781956089925   16.96690157745878
C        -0.04598836184058   14.18829315645915   14.70163595752726
H        -0.95905579966785   14.31458718906742   15.25534448188251
H        -0.12747924054746   13.72349118432508   13.73498253169704
C         1.16208146276004   14.53114740410951   15.19144410387860
C         2.33959524066713   14.24932491180868   14.40336434074422
H         2.14196204196456   13.95527771343674   13.38283757088506
C         3.60994538790212   14.19502286240376   14.84235954364445
C         4.70098376986261   13.74353259363223   13.90569988708877
H         5.14645027073269   14.60923873225071   13.41239581700376
H         4.29582855349985   13.09055210780499   13.13599977985815
H         5.48865239872321   13.21727292467910   14.44136214635130
C         5.14698590276171   14.11412454689195   16.69333743541442
C         5.10831965952309   12.89349181806582   17.38677686028476
C         6.25724389884284   12.44268036075093   18.01848845904020
H         6.24548005006374   11.50221649827318   18.54817977035253
C         7.42651349967925   13.17902250414607   17.98273707786644
H         8.31087567460876   12.81937229292618   18.48989834365615
C         7.46417241435205   14.36681362324305   17.28121265248348
H         8.38752542472696   14.92666813242668   17.23855071632559
C         6.33937106645481   14.84441483879046   16.62077499443359
C         6.44863984107544   16.11047465046102   15.80241086789041
H         5.47498217688602   16.30617876448614   15.34372043682070
C         7.49045156393030   15.96116923729478   14.68918727329944
H         8.49131717073995   15.87430533428673   15.10606029578187
H         7.46465201655881   16.83437564389054   14.03873827200600
H         7.29791909696416   15.07521012944259   14.09040545922105
C         6.81165865217657   17.31265137201433   16.67274560383935
H         6.09265777101399   17.43039270794473   17.47758664409687
H         6.80768968898075   18.21405790736882   16.06292864894171
H         7.80084206889713   17.19022473021514   17.10946636010533
C         3.84516059228751   12.06573376556085   17.40025001907463
H         3.00805658587502   12.73704338631089   17.19831024768678
C         3.59609147469313   11.37939344446221   18.74245694764186
H         4.30142882759663   10.56840118847920   18.91410081771288
H         2.59475587689476   10.95443064584229   18.75428969297266
H         3.67776039207068   12.09245840944646   19.55728413819886
C         3.89408982736058   11.01748537865301   16.28437034580184
H         4.76592920296515   10.37448133199437   16.40040033229304
H         3.94116684107339   11.49488994937751   15.31014695790537
H         2.99961379718370   10.39862789597890   16.31631517929544
C         0.15071915280247   15.49166958280003   17.11210018812802
C        -0.52225403900352   16.64664691440095   16.68644890877506
C        -1.66631853188348   17.05188188005215   17.36034498794954
H        -2.19471736699186   17.93702372023660   17.03617383011991
C        -2.15606355871475   16.33111898778522   18.42953276633905
H        -3.04937341527660   16.65719219242678   18.94355518803275
C        -1.51208987762493   15.17337975986946   18.82188561087190
H        -1.92662935287660   14.59920352141638   19.63564535347118
C        -0.36233858248290   14.73671652417154   18.17881592673694
C         0.29526671397366   13.43406159863402   18.57428700185830
H         1.37271708229397   13.56638881577437   18.46279373857428
C         0.00333576475596   13.01179529109704   20.01528611205111
H         0.14876811923015   13.83737916830405   20.70993769423601
H         0.67062526993049   12.19997562636338   20.30040499596158
H        -1.01793613493945   12.64878910454704   20.11972124504955
C        -0.15534476351315   12.32099645395469   17.62243845619162
H         0.29620080896689   11.37355678575006   17.91093758058086
H         0.13532924600779   12.54791427729545   16.60075967132655
H        -1.23876887034834   12.21005377889192   17.65719122827623
C        -0.07302853863970   17.43439400216612   15.47605402340589
H         0.86005598993324   16.99931639900042   15.11351555284899
C         0.18835606197284   18.89938713070068   15.82254075574632
H        -0.70899599960826   19.37552797673577   16.20712709129970
H         0.50281086807402   19.44602861105349   14.93596617910005
H         0.97344335988825   18.96596655580818   16.57311813331863
C        -1.11302472647035   17.34079121868507   14.35619814898149
H        -1.23709233181654   16.30501237027043   14.05192732600052
H        -0.78949502237961   17.91786830496489   13.49088969077851
H        -2.07563612625031   17.72636928705523   14.68434867391051
C         3.21799342599868   15.77622621213152   19.73173221837025
C         4.51271024926213   16.59520815619502   19.76283339668278
H         5.33289477188950   15.98154689982452   19.39621334433037
H         4.72609063999489   16.91905013587268   20.77871092232149
H         4.41169673032227   17.47068718707572   19.12629064705966
C         2.01990634467699   16.68755757831221   20.01723995468076
H         1.98009743660640   17.48202445805557   19.27537602247140
H         2.10234295359803   17.13232395048576   21.00571863064935
H         1.09771077588069   16.11721314293482   19.94965383822935
C         3.31517881877435   14.68022397253495   20.80104194648422
H         2.44834951925321   14.03089756900532   20.74555915154989
H         3.36801738159423   15.12065081103493   21.79371949932357
H         4.21096140991947   14.08828185502198   20.62841682661158
C         4.01027261301264   19.93455353059495   16.70623181794088
C         3.55050287697715   22.10259171695843   17.02249385420008
H         3.21311475488972   22.97163012509263   17.54769562113919
C         4.05446391338669   21.96710070073660   15.77358842910161
H         4.22890384096394   22.69545555027809   15.00913933362139
C         5.14298237982571   20.13926662430978   14.52377092536942
C         4.59427616891894   19.29825530228914   13.55024248345713
C         5.42880613422497   18.82127166054861   12.54841637748987
H         5.03014402855942   18.17162090072340   11.78769011158112
C         6.76409018879782   19.16936210459954   12.50438163356661
H         7.39721633598642   18.78720971429836   11.71758843710449
C         7.28528213704511   20.01860516142427   13.45869198654847
H         8.32506154618365   20.29980286583172   13.40480396575286
C         6.49320582482481   20.51525470238418   14.48602382531287
C         7.11662600018159   21.46796084558601   15.48365683164440
H         6.40960269662206   21.67803847759640   16.28955488715454
C         8.37631883174121   20.88316281020242   16.12638149955806
H         8.15175314475435   19.94584686465815   16.62863297908913
H         8.77205293445500   21.58321014609574   16.85934870653198
H         9.15168510391535   20.69932225104713   15.38821742363012
C         7.44570167658463   22.79480873849771   14.79104836416222
H         8.19612323213569   22.64911461527049   14.01828154112846
H         7.83176785229695   23.50915977087322   15.51485693998879
H         6.56021950583152   23.22182081944811   14.32503636038875
C         3.11737152376839   18.98922682670018   13.52176588009522
H         2.73436754753387   19.01644272832828   14.54493792904334
C         2.79917515516244   17.60752771442836   12.95424377419415
H         1.74256285150213   17.39333557048688   13.08629422496520
H         3.36113959955935   16.83651799971147   13.47581907679168
H         3.01438704142961   17.55003136959125   11.89028677378237
C         2.41339637863939   20.07762562047363   12.70157763281316
H         2.80997032597418   20.10327715785508   11.68853647857956
H         2.55491541317314   21.05968505344325   13.14982905175581
H         1.34662762605524   19.87433267114914   12.64643130866319
C         3.34237776655837   20.59246684694264   18.97493621872324
C         4.48025080876103   20.32130172644278   19.75156933551010
C         4.30446420033825   20.06345847105511   21.10234239106487
H         5.16025388066797   19.85282326935256   21.72184213250954
C         3.04614670051353   20.08380540808496   21.67269905899531
H         2.92868318664340   19.87749652230141   22.72595288427269
C         1.94462170172684   20.39212212999969   20.90304353281213
H         0.97224775744782   20.43499912757932   21.36559084937708
C         2.06902004077471   20.65109274391174   19.54304504374980
C         0.84710244646439   21.04572399365025   18.74840634093926
H         1.08158608291375   20.99904702712856   17.68049030295294
C        -0.33592363459599   20.11403161055460   19.01695689544897
H        -0.06237849042810   19.07463744803382   18.85358651289901
H        -1.15642811144568   20.36420149073243   18.34935412491747
H        -0.69755759845661   20.21823257434323   20.03593842013408
C         0.46105735763883   22.48858714164381   19.09513153340480
H         0.19670509228156   22.56772933572926   20.14692450388752
H        -0.39427808513734   22.79941433057247   18.49997424467098
H         1.28241692298390   23.17540346731963   18.90207092624662
C         5.87246323827327   20.42163676663487   19.16752601179543
H         5.84042504482490   20.11628331373932   18.11673464972452
C         6.90288579477202   19.53017680796563   19.85815898801564
H         7.14332700753203   19.89687997199612   20.85296750805233
H         7.82196649014945   19.52633817074491   19.27641160855323
H         6.54260948595483   18.50842743803541   19.93406974147390
C         6.31932060448865   21.88723109054917   19.25069058200907
H         5.64955034965931   22.53948879857344   18.69350158315841
H         7.32347853787062   21.99732499912580   18.84906659888917
H         6.32579993106074   22.21536582497198   20.28819537212221

