56
CSD_code = POKPOX | q = 0 | S = 0 | Stoichiometry = C23H26FeN2O4 | MND = 6
Fe       -2.84045937843835   10.01744341391771    4.12101671243349
N        -1.12150297618668   10.69305413433037    4.50987600001157
N        -2.85670645799487   11.38258878501002    2.90532488194422
O        -2.09244042413705    8.83063728548613    2.71942796586221
O        -2.77045782354580    8.52711172413699    5.42875888576232
O        -4.66010830270726    9.31553403226881    3.67512052599403
O        -3.58830906541516   11.12509047083920    5.58322587353445
C        -1.77731233623113   12.10438490878278    2.82022006636740
H        -1.65355416294797   12.89966739551588    2.09089492650603
C        -0.75779943806616   11.75515733088223    3.74418095178057
C         0.48057764809400   12.38814654424831    3.89946789792941
H         0.73191177921696   13.22466010915441    3.26561110975785
C         1.35089472948061   11.92946015793903    4.86381202039489
H         2.31359021486663   12.39625555805887    5.00771138697052
C         0.95946218146891   10.85151220392459    5.65844876329315
H         1.60857050332315   10.47082060598642    6.43072550162915
C        -0.27737204205439   10.27468085280357    5.44427975421057
H        -0.62216692137456    9.44396266706629    6.04025940254602
C        -3.94407659827520   11.63875708135229    2.00462158990805
H        -4.25285084958594   10.67457970669329    1.59656360110017
H        -3.62439546808529   12.29273598884581    1.17890300698105
C        -5.11465484215174   12.27203799065597    2.71891499048981
C        -6.41447521006923   11.89788177197210    2.40782278230974
H        -6.58496130707638   11.13825288245146    1.65913043846183
C        -7.48784524894168   12.48641854834134    3.05230149237808
H        -8.49584401105002   12.18785615606016    2.80206656256524
C        -7.27296063284426   13.45437488674023    4.01809348487865
H        -8.11106427749144   13.91063290255882    4.52461938461880
C        -5.97941778431504   13.83458181981117    4.33036578877082
H        -5.80431043972989   14.59206893307744    5.08053685555146
C        -4.90603589422940   13.24875850264796    3.68321391188070
H        -3.89782637962422   13.54061292856762    3.93714996057199
C        -1.32968198726058    6.89390303870439    1.58871461594548
H        -1.26385890523913    7.60197483251436    0.76744873025825
H        -1.99509449954955    6.07963547265954    1.31218652158433
H        -0.34412797885295    6.47847937070043    1.78715553057901
C        -1.85653682888061    7.59732706815210    2.82657400312327
C        -2.02169921305115    6.82089720221262    3.97449183843775
H        -1.79550323468014    5.76771908498446    3.91264189830184
C        -2.47588108708052    7.32563922000748    5.19554872138177
C        -2.61013248736890    6.34558900701794    6.34675645064023
H        -2.93469912255077    6.87393874002124    7.23914641675719
H        -1.65724714619661    5.85692630660464    6.53821402188802
H        -3.34191735167249    5.58073806253743    6.09651070960980
C        -6.94332843937079    8.73397374429923    3.93224991436244
H        -6.74318040140925    8.19202409962215    3.01195340014050
H        -7.76438893243683    9.42982252978039    3.77844193234542
H        -7.23252085068996    8.02698663303609    4.70687310821787
C        -5.69739965528780    9.48479087315709    4.36483806799886
C        -5.81214527395698   10.30474303695035    5.49046422332813
H        -6.77199577775765   10.35525949688397    5.98063217253592
C        -4.77118403103847   11.07045389769773    6.01427160363654
C        -5.09432279998943   11.92861932755475    7.22352775037007
H        -4.24841849132208   12.57121175312123    7.45095054763655
H        -5.29510821267728   11.28878844564176    8.08027792973936
H        -5.97642607558025   12.53364047597462    7.03056341376525

