27
CSD_code = POKRAJ | q = 0 | S = 0 | Stoichiometry = C12F8HgN2O4 | MND = 4
Hg        0.00000920992364   -0.00000680592679   -0.00002964923556
F         5.26011682623084   -1.87606262495729    0.01854630232310
F         3.02057609311640   -2.26114636435462   -4.08409278523708
F         5.24447473285792   -2.63905058168620   -2.55725895563598
F         0.80988466837492   -1.12877015856423   -3.00290568642062
O         1.96394282672651   -0.45409009804811    1.77426532111769
O         4.10218410185442   -0.44357147648379    1.75662712807148
N         3.04171342908065   -0.62265295501070    1.22762482180475
C         1.86547738067130   -0.86908546658681   -0.91849385856051
C         3.02644935140625   -1.06068338232545   -0.15959652857285
C         4.17119800559120   -1.65214471967427   -0.70391585403038
C         4.16486482240762   -2.06416600990479   -2.03519965996466
C         3.02640927048356   -1.87613948289677   -2.81365462651091
C         1.89608464022501   -1.28843681392462   -2.24169980870207
F        -5.26002353558832    1.87598565677801   -0.01863396242475
F        -3.02068582444475    2.26102868854016    4.08414571356177
F        -5.24450997883073    2.63895289530689    2.55720112070151
F        -0.80992427396509    1.12870067192997    3.00304106628323
O        -1.96400742129220    0.45490869324409   -1.77457769754516
O        -4.10224333660869    0.44454366440655   -1.75689124956544
N        -3.04169950055498    0.62162833165503   -1.22726448248452
C        -1.86540038733558    0.86907495061020    0.91857378413307
C        -3.02636540989836    1.06056693920737    0.15964604865872
C        -4.17110081056714    1.65214164680431    0.70386407956450
C        -4.16486369234385    2.06409599698559    2.03517860160105
C        -3.02646371128001    1.87602289119589    2.81370551572957
C        -1.89609747624038    1.28835591368083    2.24179530133952

