32
CSD_code = POKSEO | q = 0 | S = 0 | Stoichiometry = C16H12N2OPd | MND = 4
Pd       26.31859666067081    2.84088012268352    5.33687825746847
N        24.52877727093896    3.68435072872819    5.39720385231699
C        22.15853282284032    5.07301346892584    5.69616198965298
H        21.23374086998274    5.61774294191274    5.81320939083396
C        23.90945055860520    3.69978098684385    6.59868563390694
C        23.99544883073632    4.33448442639067    4.36643938503691
H        24.53597317608842    4.28454774508761    3.42643998145765
C        22.80796905378458    5.03922942312033    4.46988310047124
H        22.40417884275601    5.55037504383628    3.61079389931752
C        22.71384232589069    4.39788678485449    6.76682114088887
H        22.22919674253836    4.41337688945383    7.72948586896566
C        25.81994169929379    2.33209795503087    7.20457088746434
C        24.08136266278838    2.67523164201685    8.89108753397699
H        23.14981799113424    3.12769459075394    9.19825064205038
C        24.59520711182445    2.91110814127020    7.61641768842831
C        26.45293047125503    1.47566751006298    8.09866476490441
H        27.36290674824315    0.96621702246207    7.81250656302147
C        25.93240720916846    1.23670711559802    9.36306939494766
H        26.44802889333042    0.56810023928591   10.03785996937266
C        24.75685247583875    1.84848103380796    9.76652799638323
H        24.36122020728228    1.66780840106867   10.75518526417205
O        26.67814703473616    3.29726450312971    3.18292626342681
N        28.20542163299045    2.16429323017709    5.17893660024229
C        27.81074369649411    2.84980854190718    2.91150302937492
H        28.17436069669751    2.93014914146957    1.87564751849520
C        28.65243615135222    2.27286331266182    3.87124741078058
C        29.98342766826323    1.81244891737061    3.79466306203922
H        30.58502194960754    1.77727057722963    2.90700135759094
C        29.21800719617638    1.67762176814918    5.88676407193878
H        29.15399181108235    1.51548625437654    6.94855016573168
C        30.33709239569095    1.44163486034507    5.07315511129629
H        31.27996714191701    1.04907667999936    5.40196220404327

