45
CSD_code = POKSUE | q = 0 | S = 0 | Stoichiometry = C22H17ClN2O2Pd | MND = 4
Pd       -0.86034188701827    3.56714438479480    8.96196529754078
Cl        4.57425969210678    7.97036950883214    9.29214526104869
O        -1.51610313442129    2.34412812638801    7.50877311971008
C        -0.96422455913169    4.26659968793044   11.69145024352982
C         1.04768325034962    5.58557948718031    7.82513046163761
C        -1.59424682841557    2.37077406699513   10.39050604696925
C         2.27281218107744    7.65661635353330    7.91643632467455
H         2.38015066558659    8.69570512096931    7.64749855255304
N        -0.01861735964151    4.78449406168172    7.42638525634803
O        -0.90126556357022    5.02919985365821   12.78967587043761
N        -0.52984175678187    4.79817871454548   10.59778492802098
C        -2.47624900144833    0.98517666146605   12.67330915938739
H        -2.82101765524966    0.44067175188829   13.54012763615064
C        -1.34129041916882    3.86621354312564    5.62439293753545
C        -2.56761052091316    0.41139740827889   11.41152381997206
H        -2.98597261803143   -0.58039369358597   11.30968687022789
C        -0.40534305769657    4.76832359863804    6.18957425674294
H         0.07697746916145    5.45431134487235    5.48373686431175
C        -1.51063353399753    2.93114430682429   11.68184468351821
C         1.19277746429590    6.92444728874241    7.45984830021826
H         0.44210439332528    7.40032230727770    6.84609085347972
C         3.10151221808693    5.71524475782905    9.08807760021688
H         3.85192503974753    5.25729096098266    9.71334435674807
C        -2.56788330520246    3.22699995485067    3.62463253209278
H        -2.86458410919186    3.42269000966059    2.60581049711487
C         3.22348711142611    7.04991602830498    8.72244743630686
C        -2.65753773754101    1.82064742822285    5.57103275306111
H        -3.00543531745327    0.93668700738025    6.08460015114406
C        -3.02830375269586    2.07875411627455    4.28346632331127
H        -3.68122069671810    1.39245441965689    3.76336229448403
C        -1.94711342664049    2.25180118022828   12.81832483592475
H        -1.86615516960158    2.72077215561017   13.78790777596977
C        -0.36652961254626    6.29284452221443   12.40125767912899
H         0.54793774104506    6.47104205586523   12.97282898374903
H        -1.09973357348270    7.06634347542648   12.64391811433581
C        -1.81578975872943    2.69805239568301    6.31528416663690
C        -1.73446445317583    4.08356817013204    4.28618715543786
H        -1.36183145596915    4.96776282014712    3.78621835465412
C        -0.10795679239479    6.15795050476975   10.88338156969391
H        -0.69871271813805    6.86523601411690   10.29290898785463
H         0.94654687012797    6.29532365775037   10.63201682781173
C        -2.13356336422536    1.09319027697701   10.28273406444327
H        -2.21803012819937    0.63054322124124    9.30707398486411
C         2.01449458339948    4.98969901045255    8.64543287718540
H         1.88513459324534    3.93938196767316    8.91826394296398

