48
CSD_code = POKSIS | q = 0 | S = 0 | Stoichiometry = C26H18N2OPd | MND = 4
Pd       17.30210918413511    5.17328311622077    8.15213748413473
O        15.90555874257921    5.08543571928073    6.53870145900849
C        18.32607937258202    5.20612011933854    9.90646964691301
C        15.50022613358375    6.10970472691436    5.89771039016226
C        19.12950146637099    6.13567086249189   10.54671006173020
H        19.32983160084009    7.09972951789043   10.09772735325615
N        16.59189431225276    3.46407830142005    8.89423452272254
C        14.28239063679143    6.02206259330972    5.16256398246665
H        13.74435929944438    5.08643679543087    5.21798140730113
C        19.71571579962124    5.86788584101403   11.79021199803991
H        20.34540089797321    6.62276087177637   12.24092791893355
C        17.16668013475118    3.08255311318855   10.05581547046120
C        19.51802463602425    4.67420387789555   12.44208441999147
H        19.99095178928934    4.47749630458468   13.39361583251164
C        18.08832804898060    4.00549529946327   10.62392002330248
C        19.45059693284661    7.05547146815208    7.54802148461639
N        18.09851448294599    6.79536544056519    7.27451767521872
C        19.94832487508152    8.33617804831212    7.77985444477655
H        19.27590126852691    9.18227823090912    7.79040287113558
C        21.66600980574189    6.15581708616165    7.83747802303693
H        22.33575327039033    5.30929345619230    7.85771730663046
C        20.32418263077157    5.96420216481331    7.57754643819397
H        19.91787700085752    4.96738332760057    7.38537796581972
C        22.15445533690706    7.43204235296343    8.07565501388882
H        23.20278466291818    7.57970192046838    8.28626267762373
C        21.29386265595494    8.51573440860846    8.04931119429845
H        21.66947090595165    9.50937323359759    8.24486891654025
C        15.91112559895825    1.03469530221899   10.07471664549858
H        15.64008768001643    0.09269685884166   10.52922898609237
C        16.21622110781456    7.35412184009192    5.81496034010374
C        15.70343050187407    2.66738076576451    8.32714808241567
H        15.25982338274819    3.01351604769377    7.39984053937499
C        18.67382916656214    3.71117611380812   11.87335750430225
C        13.79649689122265    7.06879245316904    4.43444415952979
H        12.86043533172930    6.96727706772954    3.90317922002022
C        15.34089493904750    1.44094458772036    8.88832834681376
H        14.61102372069957    0.82500437079061    8.38644353517839
C        14.50283358465039    8.27729645983948    4.36067652513123
H        14.11227531486352    9.09654097646865    3.77665733780978
C        15.68976169054355    8.39920538432378    5.02711335890822
H        16.24760153469346    9.32478142193557    4.97100211304791
C        18.36179787802794    2.46577900829544   12.49425964795807
H        18.83065947555012    2.24153531807277   13.44232944676150
C        17.49740606939611    1.58137190661122   11.93605555451182
H        17.26919097076104    0.64530599976442   12.42508481413899
C        16.85126823423877    1.86748359125547   10.69852692210937
C        17.49109028685627    7.54679205318409    6.40404942393472
H        18.04656075568461    8.40584427375518    6.01367151371954

