42
CSD_code = POKSAK | q = 0 | S = 0 | Stoichiometry = C21H17NO2Pd | MND = 4
N         1.88922872199361   19.63722208744475   10.72216146250910
C         2.52633990058076   20.41634075166412   11.63010602462630
C         0.69558432362918   20.82119712693624    6.15489526222025
C         2.55829685663131   21.93159351262311    9.75706652358847
C        -1.24433716751462   16.59046906480499    7.68070103168831
H        -1.30358598014571   17.04121962140299    8.66100083884068
C         2.90708127416677   23.14314831295992    9.17013822841861
H         2.63838009001420   23.33188000708809    8.13784229903732
C        -0.55474593025759   17.26127057311017    6.67367784372319
C         3.61340534701609   22.69200576754744   11.82393435825661
H         3.89196513674189   22.52376285164101   12.85428632029971
C        -1.07096549582356   15.46185238997370    5.16330880035728
H        -0.99323152477812   15.01521497598860    4.18253958632449
C         0.12503389809954   19.55217894579300    6.01448176373776
H        -0.35582409753387   19.33512566380056    5.07359387445409
C         2.92419266433692   21.71501568066012   11.10526845194309
C         0.09813544244509   18.56140782531074    7.00295776297105
C        -0.46714366589834   16.68095625765631    5.41213735880844
H         0.09399747131099   17.17096350127288    4.63045439829139
C         3.59413377824642   24.10992868866026    9.88967035881432
H         3.85957332503691   25.04628974486126    9.41899330618717
C         1.67248052647229   17.90478619378920   12.34044170630928
H         1.32471346557074   16.91319002122135   12.58171674356937
C         2.74788598636413   19.95170004961638   12.92624667230153
H         3.25272721854284   20.58095265648276   13.64124735946799
C        -1.85482914744842   15.37714025425012    7.42698393111044
H        -2.39547037104616   14.87000661364808    8.21307938382427
C         1.48050328429317   18.41970211923448   11.07090089470844
H         0.98465035940805   17.83928057561759   10.29990059220282
C        -1.77041826986081   14.81047636351677    6.16595873320386
H        -2.24385257423182   13.86038787677494    5.96569185301545
C         3.94527849163390   23.88497818839732   11.21302383154653
H         4.47990632394566   24.64338480106297   11.76648627589800
C         2.31776959874222   18.68938465470280   13.28753835480129
H         2.48172850481871   18.31962150681781   14.28848286879818
C         0.58106772449869   21.74467923726074    4.95595697206556
H         1.05861402700772   22.69483640855774    5.18038452246947
H        -0.46611199338546   21.91520935176338    4.71599089348306
H         1.06144221112927   21.29538045217898    4.08965833382013
Pd        1.58740585570285   20.39799364645592    8.94829279556903
O         1.30062744753336   21.29402007831836    7.15725054668542
O         0.55476696200428   18.67094559913877    8.17675088005683

