79
CSD_code = POKZIZ | q = 1 | S = 0 | Stoichiometry = C33H33N5O6PRu(1+) | MND = 6
Ru        2.84601169605928    8.57876881590259   12.87895633167984
P         3.80863349340187    9.01918638801433   15.02507622521396
O         0.94791411904486    8.22943122362011   13.78250698433280
C         0.76847353518533    6.34084283221963   12.28678615207600
H         0.03952093718374    5.55108813812389   12.09229863650690
O        -0.91097218497132    7.01822917562991   13.87087762009154
C         0.17640186996035    7.29139745501664   13.43731962985199
N         3.10324635481559    6.51684040326849   12.94170977540197
C         5.50354964095686    6.09554707432907   13.44481991429256
H         5.64524182777163    7.12640642514281   13.12697742673212
H         6.16192867996139    5.45706462937597   12.85843797722081
H         5.77764907548367    5.98078006259824   14.49310569828401
N         2.00295408056403    5.75451508046226   12.73284324705451
C         4.09929757466446    5.67719051734823   13.23098939521929
C         3.61055472326920    4.36656333606360   13.24140832124121
H         4.17210807693522    3.48048205809201   13.45138380670072
C         2.27250572900574    4.44284628595674   12.91886126656454
C         1.25745621961334    3.37299235286950   12.78465147532246
H         0.39868649725814    3.56687676213414   13.42644636378966
H         1.69836025889342    2.42319063249852   13.07240148981144
H         0.90791507973506    3.28734195076246   11.75560088275305
N         1.92887303355461    8.05712013586661   11.04533410307809
C         2.84626604035290    9.64962742875644    9.38390551132516
H         2.99262907823989   10.39650030950348   10.16346849000175
H         2.45398071223675   10.13741793892596    8.49596366960633
H         3.81711724564841    9.21559903998231    9.14037678132114
N         0.98826282095144    7.09412762252859   11.08158566742259
C         1.91684645264866    8.58057807972003    9.82242074373692
C         0.93310104069988    7.93504976061683    9.06525510740009
H         0.67726208023132    8.13810422018987    8.04644749208592
C         0.35229845444104    6.99440108483983    9.89265564138036
C        -0.75087194514538    6.04107138354143    9.63571084002276
H        -0.40778437157822    5.00941287741660    9.71405183036015
H        -1.13357275992684    6.19739858062996    8.63160982551060
H        -1.56491227588475    6.19038032419166   10.34442758934706
N         2.48265623712814   10.22146709555746   12.75073931371786
O         1.90892367417326   11.20519816406840   12.72111020181984
O         4.75173883990251    8.77038347941836   12.00132390234908
C         5.14909234088590    9.95540461021441   11.85998502164948
O         4.46881832849686   10.95141599280556   12.10584957976616
C         6.61648710815971   10.10862901846018   11.35951917366496
O         7.42062038744711    9.25580769046948   11.60868480126666
C         6.85995236768884   11.37726953424210   10.62063654291966
H         6.39079022512082   12.19891672478427   11.15787064464953
H         6.38614905175237   11.31715743227743    9.64108590840120
H         7.92564482493909   11.54551302670160   10.49388134778931
C         5.34746788833102    9.97412835308813   14.91011230530798
C         6.59178806497501    9.37879164541702   14.71702789776690
H         6.68827146975886    8.30496618733322   14.68276298583227
C         7.71930537018028   10.16620946102833   14.56110833273390
H         8.67893261920363    9.69575943366227   14.41377426967230
C         7.61356389165858   11.54690509748825   14.57378234373575
H         8.49446083995922   12.15659515656431   14.44437195087465
C         6.37460377238405   12.14487539803934   14.74634675284168
H         6.28639902424306   13.22037332395639   14.74853375780702
C         5.24536402779228   11.36644656260885   14.91044609802043
H         4.27947190061608   11.83633662431096   15.03491545909331
C         2.79441385841478   10.02201439066026   16.15521696377157
C         3.39278113615897   10.40140455194860   17.35811010354541
H         4.41456105563458   10.11338475858270   17.56459393376434
C         2.68359315242172   11.14949438443990   18.27638281515985
H         3.15108607354359   11.44381821641366   19.20350582126935
C         1.37393901555447   11.51976336491332   18.00743200192298
H         0.82182814666989   12.10547677739613   18.72603227274087
C         0.77461296038399   11.13264177546717   16.82168017261412
H        -0.24683602068200   11.41152785025105   16.61408635201471
C         1.47837505982993   10.38213285138721   15.89332760256456
H         0.98897907876330   10.06366993791632   14.98444947374857
C         4.06729557217998    7.54649066237684   16.05338120735805
C         5.18426673363830    7.34319593328224   16.85677999128812
H         5.98966053313279    8.06266787662297   16.86916440906831
C         5.25824395323234    6.21113051888216   17.65114949271385
H         6.12632566356468    6.05266433719055   18.27262023933403
C         4.22490312197568    5.28859878224527   17.65539997889512
H         4.29266502126147    4.40684819933294   18.27347335854250
C         3.09514563807127    5.50715462390334   16.88173067642851
H         2.27700689690579    4.80347530785801   16.90596012239552
C         3.01329385744630    6.63483048797671   16.08779426509662
H         2.11922434578132    6.83409401230051   15.50878824135086

