81
CSD_code = POKZUL | q = 0 | S = 0 | Stoichiometry = C34H36N5O4PRu | MND = 6
Ru        9.11039327194521    8.58751822974012   11.29146944760084
P         9.91248368502574    9.27033828022525   13.39322769326790
O        11.17154901667329    8.47070496879933   10.71949593377247
O         9.20623548091132   10.60543300568609   10.64808395829739
N         7.31260622517132    8.71432329120443   11.80555502569211
N         8.66132794242925    8.15725590211868    9.32121538748283
N         9.14100873473497    6.51683513675476   11.51702420216387
N         9.78928864117280    5.84373316983080   10.54870334255138
C        11.43995357860404    8.40143216064289   13.94087019126578
N         9.46758629032345    7.28148864942839    8.70785897519447
C        10.61876558988349   10.95050294428519   13.45339243548596
C        10.43133838992036    6.53158305033687    9.46312490678154
H        10.91382252615835    5.80122323423886    8.81149209875229
C        11.53398712075533   11.25249152932621   12.44818522875771
H        11.75751029708618   10.50801048119877   11.69465500134739
C         8.90978942582746    9.11992802240467   14.91679652021286
C         8.25374176047865    8.18540818998874    7.13593372993795
H         7.82868471362403    8.44462953525148    6.18801568411298
C         7.75315011995063    9.88403907906566   15.05975114349954
H         7.49914219365065   10.58620280722952   14.28257508125287
C         9.25984214139275    7.27307667359694    7.37074887941736
C        11.76022230831700    7.13897910479002   13.46150290620014
H        11.09725229791904    6.65378522086473   12.76357861574665
C         6.95532596503869    9.74339968265493   16.18099660200249
H         6.06641018791890   10.34954556590432   16.28676332907446
C         7.90720088446413    8.71857140275690    8.38668818968658
C        12.29876185142210    9.00338790249852   14.85852844003638
H        12.06075458979103    9.98023824346044   15.25561176917403
C        12.91772977197216    6.49698456312056   13.86485287002804
H        13.15639380380928    5.51995094148846   13.46965795075368
C        10.31684322953268   11.89891430692085   14.42135512714544
H         9.60458553022643   11.67111630099364   15.20076966553873
O        12.71864696189573    7.24277726323941    9.68126765899073
C         9.03818613386902    4.33091269639842   11.93696466458787
H         8.81279165609537    3.40230398886579   12.41948409967344
O         8.09508377778977   11.25445190545336   12.44035385572724
C         7.88003895053846    5.97164194195838   13.57481851793422
H         7.87011925485796    7.05284162093196   13.69861050037214
H         8.31936417905477    5.51349252431208   14.45899137172025
H         6.85575273692436    5.61352080279386   13.47933085742515
C         8.66553933596328    5.61240459180434   12.36683662181851
C         9.23397737534133    8.19855085579891   15.90952356017087
H        10.11790938950359    7.58530960198605   15.81102046416134
C         9.75698253682567    4.50805801526646   10.77492027364421
C        11.59235412436554    7.53613209116083   10.02274447631253
C         6.24077555846587    8.92529891047696   12.17831954859717
C        12.13419353669433   12.49733147277678   12.41001588947124
H        12.83917683140938   12.73160804811001   11.62542121288312
C         7.29118127417262    8.83323948168283   17.16995716499867
H         6.66818824487260    8.72533061150596   18.04624504847170
C         8.43105997431685    8.06049189181457   17.02809153548840
H         8.69874185759316    7.34637614849158   17.79394280918571
C        13.45256191137708    8.36158263440393   15.26708519561004
H        14.11063379808321    8.84241978672501   15.97675786682955
C         8.74440945587678   12.91470861600004   10.84068270279076
H         7.75150870884496   13.35738848953613   10.83830835593024
H         9.16497577470051   12.92072983600622    9.83976877800023
H         9.37868679831679   13.49192975302356   11.50931353118665
C         8.66707897828315   11.48347491910344   11.36901345234172
C        13.77017664709417    7.10922950335600   14.76624432536607
H        14.67850795589132    6.61447229177748   15.07786304736890
C         6.84275871681726    9.71343983572504    8.67972168842154
H         5.86429395174761    9.23136064614500    8.67199691307305
H         6.84645953232142   10.49386727067851    7.92220643060967
H         7.01049823726193   10.15925516822864    9.65664905194367
C        11.82965614192286   13.44479913367375   13.37479454775603
H        12.29626200261630   14.41934428777803   13.34397046457145
C        10.92361095536825   13.14255744918216   14.37777898131254
H        10.68555241271589   13.88064366775932   15.13096333235522
C        10.41443547262568    3.51246899752835    9.89183251677823
H         9.98587503300370    3.53125957381791    8.88915962243449
H        10.27430811685055    2.51838700363991   10.30683182956402
H        11.48343010757145    3.71014194225000    9.81443720025226
C        10.03103624961621    6.42053262872140    6.43139939336353
H        11.09779327958709    6.62927577444344    6.50986483561742
H         9.71016397599088    6.62578018889606    5.41407795730130
H         9.87084088745609    5.36108272410956    6.63651074240875
C         4.92345065182762    9.21688848971020   12.67383174849592
H         4.83629929657024   10.29265469267548   12.82571155730270
H         4.76740493757893    8.71008310246082   13.62631134310669
H         4.16577875540938    8.89043555101561   11.96137212404053

