85
CSD_code = POLBOI | q = 0 | S = 0 | Stoichiometry = C37H35N4O6PRuS | MND = 6
Ru        8.43246402781663    1.01258665045640   22.66194890557872
S         7.64365308133197    3.05645762638687   22.76846678334059
P        10.19972953599732    2.13445058134741   21.62788695385934
O         9.41995918628672    1.27108968957815   24.53629682323183
C         8.62690013539337   -0.95084557037888   25.02697686672343
H         8.69208807875287   -1.64477207675982   25.86734097572417
O        10.04037156692034    0.35256043445395   26.47124715097622
C         9.46798836950927    0.37387337203196   25.40416635490161
C         6.84512017741731    1.99019789863486   20.42088970683478
O         8.62245254264580    4.07889505100195   22.49623114982667
O         6.57543146795565    3.41117505476093   23.65708576141116
C         6.25231316488873    1.99660276385407   19.06028997648990
O         7.39259577868622    0.94653435463975   20.82426300417833
C         5.80956542730649    3.19163687358928   18.49991580930931
H         5.88520369093014    4.09702070619982   19.08105980737535
O         6.74785429604145    3.07000933450882   21.09841968806715
C         5.29737012089096    3.19938592670193   17.21668275153818
H         4.95824109023927    4.12585966925030   16.77804301910415
C         5.21938249845646    2.02060375466562   16.49130046712036
H         4.81940081943492    2.03027780879471   15.48803286385880
C         5.65282231649603    0.82817454606256   17.05057467967925
H         5.58737200143572   -0.08892849787040   16.48386569889093
C         6.17053119404066    0.81237038170304   18.33118796762736
H         6.51491267812024   -0.10594360476947   18.78236610282462
N         9.10229772499502   -0.98027148059181   22.65170568822980
C         9.55557476974397   -1.55692595001017   20.30281264542300
H         8.92941174565705   -0.68260933816646   20.13525762146653
H         9.14801543882500   -2.40896000091593   19.76190387817008
H        10.56185270795721   -1.36508518839711   19.93460492226906
C         9.57163208619051   -1.84132848930424   21.75811374381868
N         9.17239765967566   -1.57956874648082   23.85319795042892
C         9.98408531578005   -3.00985198161474   22.41324331403618
H        10.41916513228332   -3.87786410191926   21.96297279723899
C         9.71708027405652   -2.81529078415560   23.75089993977587
C         9.94744989321793   -3.70415352046828   24.91700632877084
H         9.00473049107319   -4.01374265920067   25.36934229751225
H        10.54450771241218   -3.19865908791447   25.67499357819305
H        10.47815843498833   -4.59371590345489   24.59044797718722
N         6.87998667009611    0.16721036282947   23.76719574514603
C         4.75961159779668    1.05772490864581   22.83716094747852
H         5.00426747274148    2.11869669219567   22.89178730177304
H         3.70093092966682    0.92543053581310   23.04466573143765
H         4.97444441499147    0.69883620276774   21.83107767193868
N         7.24929279344867   -0.59597231728596   24.81214467817788
C         5.56335524069888    0.31417331196856   23.83868105029087
C         5.08545129107112   -0.35849815613702   24.97259376421926
H         4.06875873566218   -0.41107712488254   25.30303913517431
C         6.18461135722485   -0.92543186236254   25.57925080464034
C         6.28945886856375   -1.73563696255300   26.81850312839649
H         6.65377144933869   -2.74107030212004   26.60423161672014
H         5.30782130275252   -1.81683158356184   27.27616446191082
H         6.96754289477772   -1.26526859255709   27.52986486408025
C        11.54350116304979    0.95741725076022   21.20746214349700
C        12.19455284874198    0.83740343664411   19.98721633804375
H        11.90348977708634    1.45628354332365   19.15035166665783
C        13.22104239560982   -0.08125242450471   19.83547770645303
H        13.72117900996046   -0.17124802515190   18.88165303622279
C        13.60949987075026   -0.87956933856280   20.89741696107957
H        14.40730359005624   -1.59661187020643   20.77106496890663
C        12.98123639358837   -0.74674158353883   22.12634407398358
H        13.29347196942614   -1.35542527472138   22.96241502883601
C        11.95899099705007    0.16906425664603   22.27822329257452
H        11.47340150000196    0.30041383403052   23.23878322187154
C         9.80740632601759    2.93220363378469   20.03729465496084
C         9.75655292954468    4.31616595679168   19.90382106241003
H         9.99121812298944    4.93838664259193   20.75314620649261
C         9.37317249508610    4.88367526666864   18.70211191133986
H         9.33045294894362    5.95908587385674   18.60935655170529
C         9.03861726509598    4.08302466863933   17.62196158848990
H         8.73492566807655    4.53000632476230   16.68658769002895
C         9.08746435240293    2.70515943981302   17.74670954689338
H         8.82066716861644    2.07435801433848   16.91070335390702
C         9.46207969048144    2.13320230692986   18.94929336094826
H         9.48527201739172    1.05724463913761   19.04837760245207
C        11.30940988786818    3.32846743749622   22.45092046175996
C        12.34485045326755    3.87576154844114   21.69669477567967
H        12.45011754413290    3.60925313444990   20.65334423686647
C        13.23326348324958    4.76176378444524   22.27544208033360
H        14.02908204059256    5.18961745139322   21.68239652391187
C        13.10390920176920    5.09858655802431   23.61348825043335
H        13.79875937242060    5.79202752136243   24.06488976912695
C        12.08504306640961    4.54354466689477   24.36835658832029
H        11.98496449622702    4.80042321117481   25.41253709616219
C        11.18786658436680    3.65967830483836   23.79290636615817
H        10.38964771705314    3.23299920045319   24.37934903110886

