114
CSD_code = POLFAA | q = 0 | S = 0 | Stoichiometry = C36H72ClN4Ta | MND = 5
Ta        2.39903405526181    5.57706067673407    8.56315239716869
Cl        4.70196519339892    5.30896331308397    8.17077647521164
N         2.43640228648170    3.64309737064294    8.76835226321838
N         2.60215881689129    7.11629744754386    7.38174707460597
N         2.53085555199401    6.37667206885737   10.32443994960054
C         2.71509788454749    6.87395673829702   11.45855516976746
C         1.48774929678165    7.37969099837510   12.24472253003657
C         0.34715087307798    7.62770511192451   11.24888671007356
H         0.21336357002800    6.77377348295820   10.59129830440589
H         0.57629565107121    8.49449603716668   10.63378461501653
H        -0.57941143098204    7.81914090491020   11.78720505648765
C         1.69290334943687    8.68753301365071   13.01787879621000
H         2.28160618173857    9.39137673460338   12.43514696835038
H         2.16600764419813    8.53209977023183   13.98029621018686
H         0.72083244722382    9.14134981221182   13.20423361823111
C         1.07357362547184    6.24828972516691   13.19603449974124
H         0.17268603596125    6.53097529150461   13.73763515861332
H         1.85303609306190    6.03007325281737   13.92073149720118
H         0.87155741780040    5.34139791005327   12.63036276955315
C         4.16090259030432    6.87855063725540   12.00710213666328
C         4.65806817366107    5.42565994851173   11.97253074044934
H         5.71050555316188    5.38615804427819   12.24601734317848
H         4.55007298190541    5.01397735341703   10.97309895263865
H         4.09455492162750    4.81122982180159   12.67168953615416
C         4.99758598786568    7.71102011811456   11.02528740988550
H         4.63096197133986    8.73462336535988   10.97622454115511
H         4.94888887187043    7.27184991847555   10.03285552190735
H         6.03778545194624    7.73063902163336   11.34397502519157
C         4.40639847417256    7.41982668594163   13.41615775768118
H         5.44152944061555    7.20921334327481   13.68321047596033
H         3.77588766201596    6.93896844576865   14.15792957228398
H         4.27269075554604    8.49531278833988   13.46530458951181
N         0.47313034271930    5.52151482915416    8.42137809504146
C        -0.76770792658071    5.46810530860766    8.29789539700501
C        -1.45052180803727    6.46594820203929    7.33288915638860
C        -1.51558660447847    7.80577396499487    8.08027808036941
H        -0.51898425739511    8.07670770691583    8.41916265580598
H        -2.17217874904179    7.74640570733026    8.94353153950699
H        -1.88811913533239    8.58430236693946    7.41653680951484
C        -2.83683174438505    6.10959918043939    6.79446495010151
H        -3.16994856110808    6.91850898701980    6.14448810364456
H        -3.58204649193535    5.99649431122225    7.57409515304446
H        -2.80069330290850    5.20240199494040    6.19774976429072
C        -0.53374253669838    6.64064680489544    6.11578828731814
H        -0.95087091521659    7.38493846832593    5.43946040159410
H        -0.43547195352198    5.70062556098644    5.57543199036667
H         0.45076894054203    6.96491109170191    6.44036873334577
C        -1.56904916149943    4.46737985137871    9.15935241195998
C        -2.58728878478750    5.17238227464166   10.06225681641781
H        -3.08298018723382    4.43060333223624   10.68665011745975
H        -3.35260212555195    5.69906541340069    9.50259463083498
H        -2.08192999279230    5.88210535537104   10.71184522885088
C        -2.25854690675081    3.41110918972678    8.28333335283768
H        -1.59495330870256    3.08988650527165    7.48349871805131
H        -3.18272083062014    3.77443573622554    7.84889835941569
H        -2.49987495424129    2.54093900427599    8.89168675070498
C        -0.58378866309125    3.73113134929752   10.07423690237954
H        -0.02646731617040    4.43668001847642   10.68439317191920
H         0.13519323167529    3.17387426978698    9.48206134777753
H        -1.12173743299109    3.04530988292568   10.72641300905775
C         2.59447225897107    2.40877927562078    8.69691270648222
C         3.16235864004228    1.69047754904331    9.94433882691232
C         2.87993806894598    0.19595073350743   10.10031907373009
H         3.34646336816591   -0.14465010138178   11.02448750369942
H         3.29255789326556   -0.39952641866219    9.29233197667045
H         1.81280564312927    0.00509010072720   10.17945806260813
C         2.59475630996714    2.37884958001689   11.19479020875236
H         3.13087366902190    2.04362651626580   12.08038318676682
H         1.54172067224671    2.13403141448470   11.31519343204758
H         2.68753337306550    3.45785702596659   11.11060068086486
C         4.68214736027203    1.91691409103077    9.89864882969129
H         4.90300887946110    2.96304656003826    9.70146216658780
H         5.14374437115718    1.31986023028666    9.11672740468271
H         5.13136795281956    1.64009017855864   10.85092094103927
C         2.29051667502709    1.67842258490567    7.36845707340159
C         1.85365974671461    2.72356194005877    6.33130054068367
H         2.65616141916564    3.43769424575995    6.15601564416279
H         0.97240548695777    3.26505784039784    6.67507651209749
H         1.61882372132876    2.23533501944554    5.38680029215855
C         1.13791849333850    0.67660086837942    7.52509293545971
H         0.32962742889230    1.11367292177429    8.10793287201491
H         1.45512004606323   -0.24357647701218    8.00160480642572
H         0.74557894798353    0.41996190078805    6.54196273874220
C         3.54352463792439    0.99094835791031    6.81596673477900
H         3.33100976516566    0.58914993454289    5.82598147404679
H         3.87657969736542    0.17035144831977    7.44326796299095
H         4.35402784268307    1.71117319925623    6.72690226787171
C         3.06347487203424    7.96160769068465    6.58859778075013
C         3.37486793736744    9.36821921408390    7.15470944469326
C         3.11800590593351   10.54676279606780    6.21447112973127
H         2.07908151914389   10.56675291574650    5.89430458062089
H         3.76102464788749   10.53268620637686    5.34043101436375
H         3.32148494295603   11.47244451296093    6.75219565243115
C         4.84539218621832    9.36571517620506    7.60166208620353
H         5.52026927829473    9.50797038015531    6.76356335610610
H         5.08955352840123    8.42211119251970    8.08265711693150
H         5.01746097468365   10.17083144555337    8.31400189681646
C         2.49641665772856    9.58420269494027    8.39659113767056
H         2.71317345250926   10.55358421267038    8.84228915888570
H         2.67869206072410    8.80592346683348    9.13328253553953
H         1.44379209115536    9.55695370988879    8.12135359232540
C         3.34970991306792    7.58046253449028    5.11704025629826
C         2.34657432429078    8.24723958851748    4.16376509168322
H         2.38611542098335    7.74887006639292    3.19624871471910
H         2.56821281918635    9.29628297785471    4.00330992169101
H         1.33430636231207    8.15838510374531    4.54911908125087
C         3.19203422899095    6.06048382663918    4.96752628881867
H         2.17777440411570    5.74872470754444    5.21084799520676
H         3.89273624806652    5.54692616727607    5.62328356047819
H         3.40696263290092    5.76446070705592    3.94195715157363
C         4.78393685935756    7.92028503400596    4.69982590025823
H         4.96858757827192    7.52542136771774    3.70144045000275
H         5.49211387847429    7.45939428599154    5.38413418793456
H         4.96609666246521    8.98978167659196    4.66889046028813

