89
CSD_code = POLFEB | q = 1 | S = 0 | Stoichiometry = C33H48IrN3PS3(1+) | MND = 6
Ir        5.04698881279320    1.20971180663285    4.08388981778143
S         4.41344253264392    1.40856842517744    1.70888214613097
S         4.84629318205972   -1.17172420251109    3.55986254700434
S         4.93083650714182    3.64974294953322    3.93949016338220
P         2.94072559409955    1.15090665376247    5.20075731432406
C         6.11150126661544    1.38761774605092    1.64201564763334
N         6.69242859343984    1.28110943289033    2.85650432320658
C         8.02082419148787    1.25411976201911    2.94804957907404
C         8.83572543798875    1.33077190561152    1.84301846160337
C         8.24653961362272    1.44128541015486    0.57788501872890
C         6.88022748294843    1.47030504312389    0.47136674929394
C         5.81065218903396   -2.21356909035207    4.46984311531087
N         6.69573152419865   -1.74041826473254    5.38190140171577
C         7.48207987194234   -2.53770545528705    6.13337189828935
C         7.42499447899398   -3.89199657205077    5.99587528135313
C         6.52848527585960   -4.43900619563291    5.05314216765656
C         5.73785860069284   -3.61564152617256    4.30365973174206
C         5.91083639526936    4.50187541056283    5.01548150058998
N         6.76028607416871    3.86111339817693    5.85612222902684
C         7.55668937926828    4.50270855063071    6.73512522656637
C         7.54779938891574    5.86307426068226    6.81000713719269
C         6.69015392413154    6.58204256409015    5.95033975529520
C         5.88849662993878    5.91444640715873    5.06913681610653
C         2.63123893240523   -0.45149474089442    6.11305211130182
C         3.67151886506272   -0.73482891463236    7.19647956601421
C         3.59020252578795   -2.20273898865192    7.60892356162898
C         2.19639964510181   -2.51157679569921    8.14971737499779
C         1.12676954706663   -2.15577114265482    7.12123840881575
C         1.23837876932582   -0.69136671732499    6.69334709255452
C         2.65628029206156    2.61886948142468    6.32268231296650
C         1.25833637985373    2.82562110145184    6.90391196204507
C         1.18668207096481    4.21840814839878    7.53275590431023
C         2.24301890297350    4.38676345607332    8.62108561156267
C         3.63837571453671    4.10530621726304    8.06931819458257
C         3.67843342362932    2.70783529965082    7.45551442899366
C         1.49089121243107    1.24056481670237    4.04556841142694
C         1.48153099666914    2.55625026714059    3.26652202224605
C         0.26975265562158    2.62002133115236    2.34076886552309
C         0.27307485761401    1.43894484562956    1.37779668450150
C         0.25912232965868    0.13108962352912    2.15976352326933
C         1.46992505752635    0.05085115449914    3.08539704102391
H         5.82801099483519    1.09163136457922    5.42528157421755
H         8.43386802491416    1.16770397414757    3.94568785309574
H         9.90647506809792    1.30567295252094    1.95677625384845
H         8.86596595053113    1.50319120477523   -0.30341920676489
H         6.37437591520363    1.55456671381401   -0.47701675859999
H         6.71363168910325   -0.72511082936879    5.48597581141331
H         8.14241684874319   -2.04767370327593    6.83163707356395
H         8.05179748239105   -4.53115162957762    6.59307118875156
H         6.47070940954041   -5.50902449663876    4.93144367273840
H         5.04191849547416   -4.00063017880224    3.57640645524361
H         6.74195806821239    2.84184162217478    5.80071748673378
H         8.18523679923055    3.88632832064718    7.35862814919166
H         8.18268830363732    6.37841832080366    7.50957068470226
H         6.67096126153377    7.65934406706608    5.99606264103876
H         5.22148590931317    6.43288571204161    4.40002996734565
H         2.79100607841159   -1.19271203118230    5.31673311855038
H         3.47487593822707   -0.11740669324702    8.07261914756392
H         4.66987826344786   -0.49027160028274    6.82960684345519
H         4.34092196160796   -2.41903591659745    8.37191782609140
H         3.79750157300931   -2.83955958600656    6.74472482050026
H         2.02887120297258   -1.93371270831920    9.06100044509915
H         2.12290271945214   -3.56867131550165    8.40862233868792
H         0.13689619027387   -2.33757125927722    7.54255357486670
H         1.23826898040844   -2.79772476267125    6.24442080974258
H         0.45841690225163   -0.47511397358167    5.96400387881867
H         1.07858355227321   -0.05490890304435    7.56390118909925
H         2.85891836590529    3.45864555545033    5.64231155855460
H         1.05426543002526    2.07905006571481    7.67152614707440
H         0.48958442626365    2.74448807156572    6.13624222154482
H         0.19380636476107    4.37568287254872    7.95692257777497
H         1.34073773515562    4.97272533618268    6.75772673892328
H         2.03394784747446    3.69395529450515    9.43883411339094
H         2.19925617391786    5.39931683905979    9.02446001431497
H         4.37730764149553    4.18424574306264    8.86952112686959
H         3.88819047699441    4.84890145202185    7.30775843685512
H         4.67650697264570    2.47759985395472    7.07816440350951
H         3.43638311890083    1.98210609811092    8.23173651266702
H         0.58982507285497    1.19944390091872    4.67053545288227
H         2.38835617507188    2.63053048035056    2.66491655793034
H         1.45832365012470    3.40836467284896    3.94851599647284
H         0.28829470478571    3.55820452786156    1.78383232748256
H        -0.64718260230884    2.60247239049114    2.93598838019844
H         1.17215974078581    1.48013621192266    0.75969457353742
H        -0.59413196753878    1.49050734440235    0.71793899615050
H         0.27187537510656   -0.71678616302507    1.47293562223132
H        -0.65862688716490    0.06907694582314    2.75067557931115
H         1.43753534984822   -0.88997709493815    3.63822968956797
H         2.37681412707855    0.05561807412938    2.47920502735210

