58
CSD_code = POLHOP | q = 0 | S = 0 | Stoichiometry = C20H20ClCuN6O8S2 | MND = 3
C        12.65859123077139    8.42162963195478    4.34171501851703
C        10.81491950383267    6.91190090988954    4.95008460525977
C        10.16846116799783    6.37008027678730    6.08127589447798
C         9.36853767347392    5.23201571285886    5.95619001991370
H         8.89224574689776    4.85022707259348    6.84651917301439
C         9.19651447292060    4.62096085608742    4.73614164371690
H         8.57705470466358    3.74263461300949    4.65147331461661
C         9.82297720492101    5.15380910740455    3.61505853989870
H         9.68441166986705    4.69366888752457    2.64905446107033
C        10.61333833944969    6.27766758857800    3.72065361796762
H        11.07731441882898    6.69151953132594    2.84208906916947
C        12.54135829487492   10.68334448838112    5.27389739823032
C        12.98074954938478   12.88988097945026    5.87451745821856
H        12.08339312069754   12.87218000513428    6.47360295457707
C        13.86800630503427   14.05576642450720    5.75472657218292
H        14.26017912742912   14.34703714202982    6.73179559037090
H        13.32413472014774   14.91766361126721    5.36212782380859
H        14.69410074700423   13.81655313210209    5.09054335663976
Cl       15.42969015461871   10.69080284268429    2.71522816507310
Cu       15.43050493579494    8.42753062095348    2.71388652647875
N        13.11662478622250    9.69172512499379    4.51188552793982
H        13.95109576162878    9.97958202119915    3.96425725596389
N        11.56952378951980    8.06620698357810    5.04623106521771
H        11.31479501263941    8.69901849021763    5.82216941350710
N        10.31031108143746    6.91667804006187    7.39524742042715
O        11.51092712281501   10.60507643563644    5.90818814712142
O        13.31347862448048   11.78444899937413    5.20395337121846
O        10.91292464420071    7.97164531125995    7.53272064293384
O         9.82905272649230    6.29732577975292    8.32241333452271
S        13.50247551440455    7.35221447625967    3.35466508675933
C        18.20296178955862    8.42194492954687    1.09070682533364
C        20.04670568560401    6.91270448290827    0.48260454587875
C        20.69243476441408    6.36985010279480   -0.64844358958155
C        21.49112614310836    5.23099204946852   -0.52309431387289
H        21.96688699687557    4.84840240728975   -1.41337361659711
C        21.66272389174499    4.62018949291172    0.69714893014186
H        22.28110862446493    3.74112531398715    0.78196333502495
C        21.03724217889146    5.15427630900472    1.81819227804506
H        21.17561939245781    4.69451430037091    2.78439382419785
C        20.24803058667333    6.27892404512126    1.71230035847112
H        19.78456873522114    6.69365311171223    2.59073859620741
C        18.31914021535486   10.68356716469970    0.15852416626290
C        17.88063666848235   12.89073737359754   -0.44053643447068
H        18.77860736885936   12.87369197511877   -1.03867770443993
C        16.99225916165234   14.05585147799796   -0.32167133146050
H        16.60021504124568   14.34661951484692   -1.29895192570813
H        17.53483291423806   14.91836414145589    0.07126063053188
H        16.16604689214687   13.81576409710169    0.34204508507543
N        17.74419046346041    9.69178873683404    0.92058499906434
H        16.90922589394304    9.97903078940833    1.46782975989063
N        19.29231117556969    8.06725633309405    0.38640525366953
H        19.54810931333226    8.70223341978847   -0.38740467178983
N        20.55102832495059    6.91626379888842   -1.96261266398278
O        19.34940267569559   10.60512367012942   -0.47604177276520
O        17.54731517840931   11.78469908583063    0.22886171878408
O        19.95062970879228    7.97240769198369   -2.10002828080127
O        21.03020589561580    6.29525109309367   -2.88972932034211
S        17.35964216675913    7.35217799419898    2.07789285043368

