33
CSD_code = POLHUU | q = 0 | S = 0 | Stoichiometry = C9H14F3N5NiO | MND = 4
Ni       13.66588293215959    1.18217039838822   -0.86176289433277
F        14.56199940188637    4.90668477350146    1.66892270325330
F        13.39173233676166    3.61645784365335    2.93842202821288
F        15.51326589336890    3.77459439709639    3.22581817045083
N        11.96791065632396    1.72972536765380   -1.23544470553392
N        11.30499339385610    2.61229592302691   -0.82471346488460
N        10.53174494496499    3.39215878248631   -0.55178952425041
N        15.41315150555715    0.46670414551889   -0.52072522240059
N        13.53924782614890   -0.17593052002232   -2.35140733536531
C        14.55341908510538    3.71644884867694    2.28568017663540
C        14.75131315020985    2.56556602345519    1.28658252545944
C        15.91885808891755    1.84684967441458    1.35099256775749
C        16.21721308715235    0.79257279316842    0.45422237115028
C        17.51693840324371    0.06911440454364    0.67288877181405
C        15.78733803486083   -0.61032025476049   -1.42229484084428
C        14.93615575415843   -0.49520617452028   -2.68566865553805
C        12.86048521119231   -1.35609856954680   -1.80052773842587
C        12.84434495154908    0.21804412049204   -3.58222027586788
O        13.77123264313987    2.41908752461405    0.49507335643402
H        17.35373023240824   -1.00621628030425    0.73309574042445
H        18.20214934478761    0.26188987436167   -0.15309547222072
H        17.98786634891011    0.40321425097427    1.59165871377311
H        16.64223328490033    2.08997816666062    2.10938007598897
H        16.84528998551390   -0.54995988767370   -1.70449669454928
H        15.62873292586945   -1.58039616673281   -0.93187732774413
H        15.32729111553452    0.32715142498362   -3.29100750544214
H        14.99068043260736   -1.42133289915964   -3.27635726590321
H        11.80314754983800    0.43714429333080   -3.35765896501701
H        13.29987549470563    1.11588697141919   -3.99596424683143
H        12.89533656760092   -0.58811401928406   -4.32345845637718
H        11.82373568297947   -1.10316544934599   -1.58484856232898
H        13.33383971542140   -1.67718594385498   -0.87402073839906
H        12.88556401836736   -2.18371383721565   -2.52059730909663

