84
CSD_code = POLKIN | q = 0 | S = 0 | Stoichiometry = C37H42N2O2Zn | MND = 3
Zn        7.39813083197972    3.05444681651870    6.41991607255735
O         8.54686162298435    2.27003642098619    5.28332623398365
N         6.95868141403106    5.92596817760708    7.39603692632616
C         7.39691858794861    5.11823940400978    6.41992710662954
C         7.11975472058773    7.23573477994600    7.03940349782258
H         6.82944079043475    8.04198351719931    7.68097007656610
C         6.40877073821180    5.48099738119778    8.63041116149889
C         5.08687449691771    5.03957774603153    8.66491442984376
C         4.57283896720835    4.60811175835619    9.87639734464038
H         3.55211878158844    4.25941216812883    9.91990486332933
C         5.34167992030147    4.60122984867767   11.03142402992723
C         6.65073635077118    5.05379918691423   10.96490552989211
H         7.25936078669344    5.05155317965309   11.85692644771457
C         7.20232263991162    5.50359076361623    9.77556801059006
C         8.60915224050211    6.02483042917702    9.73841831887111
H         9.10281928256295    5.78920271774545    8.79710437203100
H         9.18923242888300    5.59594137055268   10.55098110496148
H         8.61241521920945    7.10962050929506    9.85735861575620
C         4.77665551267385    4.09169334593232   12.31780824401894
H         3.70266251227366    4.25401145379399   12.36451837773349
H         5.24944892939993    4.57150513541894   13.17125231874234
H         4.96269409182956    3.01968677715431   12.38119010526405
C         4.25322432337267    5.02332779122876    7.42073071658412
H         4.37565978113640    5.94147519906674    6.84614096420078
H         3.20181767285281    4.90462809346117    7.66870461308920
H         4.55685203171915    4.18256906608980    6.79606361341650
C         8.42884304143739    1.84613921481379    4.03665100385085
C         7.21248816008818    1.86893241950774    3.33060634233428
C         7.17516006931482    1.44161216142242    2.01321753531585
H         6.23411992901059    1.46719173344840    1.47915046017931
C         8.30839147027693    0.97384209197857    1.37622029135755
H         8.25985612749458    0.63990564685762    0.34950180379291
C         9.50195176007245    0.91981313238007    2.07741745283074
H        10.39132289237774    0.53340487823450    1.59621274492782
C         9.57886524454706    1.34597148469053    3.38879105094974
C        10.86250323918191    1.25778993091688    4.15970809773138
H        10.79075612544538    0.47034220348133    4.91035819154038
H        11.04812981638389    2.19078920863299    4.68638186645332
H        11.69941733160953    1.03758175924484    3.50053301779781
C         5.95486537169177    2.32551746417515    4.01037204980373
H         6.00444238387378    3.39206786610851    4.25380934208301
H         5.79321355503288    1.76342728606917    4.93558096708898
H         5.09322764132238    2.16879684498816    3.36464428930367
N         7.83436908202659    5.92658607572480    5.44396332294553
C         7.67195069237530    7.23612484810716    5.80081426087630
H         7.96147847283628    8.04278351174617    5.15941108615459
C         8.38474217257380    5.48213076065965    4.20962141486435
C         9.70648263241961    5.04023845747413    4.17549851433991
C        10.22061814500019    4.60830763953016    2.96420727533402
H        11.24119496724101    4.25915721984061    2.92105718246932
C         9.45202253696663    4.60135563551044    1.80903754385093
C         8.14327193350676    5.05490393193882    1.87505629704215
H         7.53489677718706    5.05286526358997    0.98286274206288
C         7.59162208681171    5.50523193286428    3.06415321783030
C         6.18511994505147    6.02743097032579    3.10067699915454
H         5.69113420727028    5.79302612182242    4.04212948335428
H         5.60485540833502    5.59825382502774    2.28838801195949
H         6.18264607394023    7.11211494162245    2.98073415391764
C        10.01688802291677    4.09057479258626    0.52308198639017
H        11.09101428855486    4.25201336583639    0.47644853767642
H         9.54461940863566    4.57014950589666   -0.33078200817836
H         9.83003147872782    3.01865852837787    0.46042237434527
C        10.54000633783375    5.02349784349583    5.41975114730017
H        10.41425924827192    5.93945518355250    5.99706791245019
H        11.59186275615283    4.90917561242583    5.17158784302956
H        10.23923107221706    4.17978420613557    6.04181549291236
O         6.24993344926992    2.26816894479301    7.55552513273815
C         6.36561071820950    1.84586007049807    8.80293121468521
C         7.58069031137196    1.86940213261337    9.51111672834207
C         7.61558383417634    1.44353605516714   10.82903651624134
H         8.55560446775812    1.46971544329304   11.36486731481550
C         6.48116584135387    0.97634385631067   11.46436582439431
H         6.52780332704128    0.64350318542342   12.49153458685895
C         5.28891429594923    0.92137466277336   10.76099650982201
H         4.39868618807516    0.53541996490496   11.24097526811779
C         5.21441597392479    1.34621973097277    9.44907692137593
C         3.93244925432618    1.25718132921363    8.67551395193783
H         4.00795166675865    0.47273489947191    7.92211467367974
H         3.74505869450585    2.19154059416632    8.15182349272797
H         3.09494578932276    1.03225273201098    9.33232952507602
C         8.83943957113599    2.32487077208027    8.83273604235669
H         8.78802248297744    3.38979117195237    8.58246492234098
H         9.00523534996724    1.75770587037371    7.91138846597849
H         9.69939220189628    2.17426004523829    9.48213851307107

