96
CSD_code = POLLOR | q = 0 | S = 0 | Stoichiometry = C50H41NNiOP2 | MND = 4
Ni        3.23179712509081    3.14265428767484   10.27995862196430
P         4.86201383673265    2.66690693992889   11.60828643980964
P         1.51058105923508    4.01000389352997    9.26339965319755
O         4.45815862129933    4.43924978417936    9.48904061942947
C         2.11775280465629    1.82634214099086   11.00204150989624
C         1.85468540968181    0.70485865672899   10.21337241258399
C         1.02269002590638   -0.30290444042392   10.66977030339500
C         0.43103543931090   -0.20458054301331   11.91721134468414
C         0.67086019912260    0.90901932729981   12.70205159641345
C         1.50598540292358    1.91915104633653   12.25029815633754
C         5.67811582290790    1.06460206239214   11.87514725579983
C         6.69755906397115    0.94510629593761   12.81389062338614
C         7.35912980004767   -0.25894569014082   12.96404336412830
C         7.01047311780421   -1.34699322803663   12.17856260778529
C         6.00097205985574   -1.22903833001711   11.23791696657077
C         5.33788854608016   -0.02464576478076   11.08388074197290
C         4.56724485631851    3.21909262748795   13.32259151689969
C         4.08626158343736    2.32979890784697   14.27891452208394
C         3.79565905185158    2.77573121033571   15.55458087965901
C         3.96972349646385    4.11127123164882   15.88258001311113
C         4.43819927387011    5.00230811990884   14.93107027640978
C         4.73338152302335    4.55913976084576   13.65485965576668
C         6.12568869183884    3.74032243966273   10.96228817849827
C         5.67102281173037    4.53567693892528    9.94776328468439
C         6.53432689363724    5.59050967025305    9.36739801709187
C         7.88105318772812    5.34466474334827    9.13131150092479
C         8.70804214897565    6.32924319423917    8.62438293759779
C         8.18500374475159    7.58046262312823    8.33666632680014
C         6.84873434105792    7.84467605875382    8.55729793583914
C         6.00339465704212    6.86458542166344    9.08049124450779
N         4.65648676542473    7.09549558167526    9.27027918539919
C         4.03994090904021    8.24096705770753    9.71911568574657
C         2.64911655476425    8.33100081973730    9.60613027118036
C         1.97381688754381    9.43988898446721   10.06977646533751
C         2.66536415984912   10.48749794314502   10.65712530750181
C         4.04152059575134   10.40121885733187   10.78695120406865
C         4.72740206197242    9.29228507006645   10.33117127458923
C         0.01516563216355    3.08307703980527    8.80181735588039
C        -0.21911903338867    2.71679731863311    7.48099517680381
C        -1.31558148313443    1.93679074051237    7.15963268946709
C        -2.17950860329135    1.50839547944949    8.15331190831422
C        -1.94421760771078    1.86118728562688    9.47274757299201
C        -0.85093368779381    2.64025290650315    9.79797861552653
C         1.80255326844973    5.00392319809972    7.75646653652751
C         2.90485712080521    4.68274748418896    6.97155048591960
C         3.18166413814104    5.40783875308811    5.82666215759902
C         2.35491383550283    6.45467388642956    5.45545631291520
C         1.24795252061214    6.77059950172158    6.22685514957930
C         0.96919774411482    6.04990743321313    7.37382912423992
C         0.89019764362467    5.23210131634194   10.46582189662461
C         1.79620505382369    5.63600991063689   11.44300635365700
C         1.44944186994408    6.59745684339891   12.37182868366644
C         0.18515656222959    7.16207707964067   12.33262927518056
C        -0.73122506167473    6.74714163731654   11.37967725488834
C        -0.38676500976497    5.78238505781420   10.44946730306631
H         4.09937545357041    6.24152673808396    9.26732137399345
H         2.29086935934790    0.61941258101340    9.22142327560260
H         0.83131849647648   -1.16443810427965   10.04523135379090
H        -0.21826028930571   -0.99137181697420   12.27333601923190
H         0.20653066917961    0.99684662916894   13.67480292867272
H         1.67518539572106    2.78502214788969   12.88075192282010
H         6.96226948386691    1.79591273580712   13.42711696853155
H         8.14927090235908   -0.35217935572617   13.69533054030631
H         7.52823851758570   -2.28721174029856   12.30069350716526
H         5.73068421682838   -2.07694558825860   10.62528794023585
H         4.54443952907282    0.08165492321543   10.35643972504248
H         3.94321491860458    1.29083409995722   14.01464301285760
H         3.42786538436800    2.08136190318930   16.29624045964444
H         3.73906893631978    4.45724097130961   16.87960142758041
H         4.57461735070440    6.04382809473676   15.18539940653697
H         5.10401060469120    5.24810820763638   12.90635651107329
H         7.12475174893419    3.76197305769582   11.36750367529763
H         8.27699547668254    4.36060462825378    9.33673741242909
H         9.75200670697361    6.12060176470898    8.44428388139095
H         8.82027361284283    8.35062177345196    7.92339295709379
H         6.43470953881835    8.80686064049252    8.29551862676243
H         2.10983345706344    7.51441479619022    9.14949683877753
H         0.89832097390726    9.48640428031004    9.97320048527871
H         2.13727707551695   11.35773582911044   11.01700451755709
H         4.58940382140755   11.20407694196067   11.25988104504978
H         5.79550533662705    9.22555825849984   10.47330530635031
H         0.45856033043631    3.04483609772958    6.70462328766567
H        -1.49398506063036    1.65931076617478    6.13084406411798
H        -3.03330414912066    0.89723338632896    7.90056363692786
H        -2.61250904530514    1.52339182418566   10.25102543653387
H        -0.65821946748250    2.90654392139886   10.82759832793078
H         3.55241688004942    3.87252204691257    7.27860670719557
H         4.04543838406925    5.16043284731183    5.22725510499327
H         2.57241511324012    7.02709032205517    4.56580418353010
H         0.60192220549334    7.58658677600229    5.93707062057550
H         0.10796109489332    6.30596502158859    7.97360811292098
H         2.78397285015671    5.17573276213566   11.46801361305200
H         2.16060753301534    6.90579434930032   13.12353732540440
H        -0.09056873098960    7.91968136617921   13.05097078381990
H        -1.72230886083344    7.17750425824544   11.36177109416185
H        -1.11521318839891    5.44443328407055    9.72495482822395

