89
CSD_code = POLLIL | q = 0 | S = 0 | Stoichiometry = C45H39NNiOP2 | MND = 4
Ni       14.28475710758915    1.87412060386325    6.20327031268084
C        14.11112888363227    3.71513720997444    5.91844044533611
C        14.59668528119261    4.35396270466328    4.77759016079949
C        14.49517692603994    5.72860128299631    4.63809586542759
C        13.91224067142233    6.49161211852649    5.63423195174943
C        13.42525435521285    5.87177077131062    6.77196720574808
C        13.51759956235053    4.49694157434710    6.91145697905842
P        12.27735224939076    1.54730294219858    5.56083326098907
C        10.80148174536502    2.48474155841496    6.02639660528660
C         9.92706539476353    2.00718820877277    6.99465338426130
C         8.83461975823902    2.76608814925996    7.37563082362752
C         8.61969859810653    4.00851657986305    6.80269136760026
C         9.50150976015359    4.49684818439283    5.85004438489197
C        10.59198192282010    3.74181400140824    5.46500379832011
C        12.24346318800099    1.56083750048285    3.73898772157485
C        13.47461808946024    1.40152969848756    3.10963557210838
C        13.55021060293963    1.30129181659115    1.73457715576834
C        12.38876780482629    1.35615912719031    0.97922919833221
C        11.15974296214922    1.50479943492586    1.60156897657984
C        11.08155211036596    1.60262641944778    2.97964950984143
O        14.28724668690819   -0.03053374486981    6.60903974608007
C        12.04506114178207   -0.15757723541558    6.00388621679359
C        13.20308547109863   -0.73522516096437    6.45858895555281
C        13.26280070180111   -2.16471860684478    6.83062545167857
C        14.13373965070419   -2.62177913317944    7.85000615507704
C        14.13884287381064   -3.98768615355933    8.15616431977307
C        13.32774746025951   -4.87440597628483    7.48004196855281
C        12.48806962309597   -4.42866902061953    6.47197394009706
C        12.46552171674182   -3.08332850305919    6.15774141218990
N        14.88662169383303   -1.72312708137975    8.54952079380806
C        15.92766841969951   -2.09731452871436    9.46436214867007
P        16.33061292805131    2.07354441335984    6.89298971109229
C        16.16199206920566    2.45881563803583    8.66536343669531
C        14.95579149294218    2.09354283244778    9.25691780044783
C        14.74109076626833    2.31423029035872   10.60425284416687
C        15.73137940806527    2.90955001666720   11.36914738833586
C        16.92793356696906    3.29023926228124   10.78272796406220
C        17.14717277371495    3.06847788663186    9.43453704876242
C        17.32935998781240    0.54401787779934    6.90737114300531
C        18.23710468523011    0.24023280357846    7.91496531866100
C        18.94725351840220   -0.94635903080270    7.86895196249319
C        18.75176658127867   -1.83787045047197    6.82647708742008
C        17.84684753931967   -1.54024421289974    5.82075064282924
C        17.14072346142871   -0.35261425065675    5.86023526780443
C        17.52569338238323    3.32189163078473    6.32847659963152
C        17.25720722065034    4.66286358235095    6.59392896639902
C        18.10585752937325    5.64696216317888    6.12587211515386
C        19.22442568638749    5.30419972957522    5.38218049431337
C        19.48974658399857    3.97349672736649    5.10642001670729
C        18.64180994734101    2.98388029767043    5.57218980535897
H        15.00174548046535   -0.84038346259355    8.05933405921290
H        15.06700707198134    3.78336580508260    3.98488688055122
H        14.87798931809983    6.20389526936046    3.74547461816928
H        13.83489548050302    7.56384194461848    5.52366526751841
H        12.96366349997921    6.45870747330147    7.55421034357616
H        13.11507770293029    4.03290881427116    7.80653625015651
H        10.11035496861809    1.04058591650198    7.44376006100134
H         8.15071308809293    2.38984973842194    8.12297790374009
H         7.76700119124443    4.60040128734959    7.10220416419950
H         9.33822298020366    5.47059988103894    5.41144815929379
H        11.29143013321459    4.11696513888444    4.72995428083997
H        14.37212440633108    1.36318874652126    3.73007113002214
H        14.50740981463270    1.18317297452056    1.24692685213766
H        12.44163338608717    1.28151254079525   -0.09718385258266
H        10.25714049568386    1.54223221098516    1.00847912950603
H        10.12339578254347    1.71809024576553    3.46741259825042
H        11.11082295171077   -0.66978638402541    5.84045007782056
H        14.79615581029596   -4.35547458208341    8.92859621478083
H        13.35834716348116   -5.92464341523503    7.73426998941714
H        11.86305921837921   -5.12402458845430    5.93201125655042
H        11.83193437602430   -2.73675930172424    5.35442584384741
H        16.37686541415694   -1.18877291069690    9.86242814611254
H        15.51448197433038   -2.67007822041550   10.29855485758590
H        16.71749340610603   -2.69410646011133    8.98867822486555
H        14.18116364027078    1.63784179265784    8.63977793336899
H        13.80397169364182    2.02747747884825   11.05841771521569
H        15.56858499338326    3.08534150252980   12.42236669822831
H        17.69402478220159    3.76409774289051   11.37950530239669
H        18.07557879011284    3.38158235514417    8.97647902974997
H        18.38424248812874    0.92545091457944    8.73761764964132
H        19.65120742807228   -1.18037833319557    8.65476321890116
H        19.30143394072534   -2.76758414825211    6.80160257008005
H        17.68697567846421   -2.23789244529114    5.01177723512562
H        16.41815985032001   -0.11792459416555    5.08958740354494
H        16.38045281025734    4.92552194850486    7.16936674778562
H        17.89274861831356    6.68440879187566    6.33743471294470
H        19.88706618995148    6.07422234066593    5.01543111332758
H        20.35926425129378    3.70465288799854    4.52417811656935
H        18.84807818716820    1.94541115373321    5.35196069496645

