35
CSD_code = POLNEM | q = 0 | S = 0 | Stoichiometry = C10H16HgN2O2S4 | MND = 4
Hg        2.13301583825456    5.80822103679015   -0.00005577875514
S         3.58747197437573    4.68805128423596    1.85926299567601
O         4.58762022299311    6.60575861261521    6.38107093846657
N         4.47588053692433    6.48392590780984    3.57597293166335
C         3.72410358317420    6.26976652617551    2.50728867506833
S         2.90415102901270    7.57787126735748    1.76092942208620
C         5.12274109595108    5.42899870053080    4.32878742631540
H         6.18503123339743    5.67591880113132    4.42186645340027
H         5.00988043416371    4.47820008520433    3.81005891364169
C         4.48756915590528    5.36534454215948    5.72429928873731
H         3.43256010767514    5.06840227977070    5.62700801123307
H         5.01203074241207    4.64150804365382    6.34903646884675
C         3.95275514560640    7.62493201177293    5.64744950271691
H         4.08782648249840    8.54547541047448    6.21634395203437
H         2.87810566808263    7.41102724844287    5.54714351196781
C         4.57052767576201    7.76277644617642    4.24949319399117
H         4.05194112349134    8.52692752876364    3.67246682910009
H         5.62941681111047    8.02403542949969    4.34217828769891
S         0.67790208829056    6.92798821144692   -1.85901844048328
O        -0.32176546846818    5.01025216619740   -6.38106174990840
N        -0.20978576050835    5.13195882218588   -3.57595974766507
C         0.54199884759400    5.34632591181926   -2.50731970901284
S         1.36268282764982    4.03850882943289   -1.76126452570959
C        -0.85709867812025    6.18670158929530   -4.32864682951239
H        -1.91931693627304    5.93943832226122   -4.42162519787155
H        -0.74449759107102    7.13750825732462   -3.80988812489180
C        -0.22208953632063    6.25065754623119   -5.72421663532406
H         0.83282613404531    6.54796146429548   -5.62701087511697
H        -0.74688206355777    6.97435229727873   -6.34883993234543
C         0.31353917261561    3.99125832916896   -5.64756241061863
H         0.17873260914295    3.07068947905745   -6.21647379184634
H         1.38812671625015    4.20552089804488   -5.54736719105236
C        -0.30403696520477    3.85311892673221   -4.24955364446162
H         0.21488104258064    3.08911707796103   -3.67262721239044
H        -1.36284529943358    3.59150070870189   -4.34216500568034

