64
CSD_code = POLPEN | q = 0 | S = 0 | Stoichiometry = C29H27F3N4Ni | MND = 4
Ni        4.23497945004093    3.53078393003779    0.80506757891280
F         3.77227832240906    4.48934604115975    6.49495333103309
N         3.40636519379052    4.29980985645823   -0.77109735013894
N         4.84232711572333    2.03356732092595   -0.26914451656273
F         1.95909351372468    4.33856650009981    5.35804301112547
C         5.96537661952457    0.14198470614041   -0.97241304588792
C         2.40699990849654    5.78874262475288   -2.22677194281964
N         3.65505283980095    5.02824174512669    1.88517570724635
N         5.09004570610950    2.79575410043172    2.37559560572551
C         3.14512955889338    3.68483442375956   -1.96143247367748
C         4.40958459865862    1.66854203160675   -1.51126100697727
C         2.48933993390125    4.59283727456075   -2.87149937325287
C         2.98323361606793    7.14612214139376    2.49570550856967
C         2.96161231035030    5.57953241688866   -0.91138482243166
C         2.95242312595126    6.53201458227007    0.09186274519571
H         2.59946174570740    7.52210060758731   -0.14645970051804
C         3.12819223906858    6.42884655596722    3.64543221755800
C         4.85358449179492    3.09101360925026    3.68432629131300
C         5.78917358385081    1.11739365551475    0.07586961431723
C         3.55743795263012    2.41174245616751   -2.30511942655981
H         3.28060123293669    2.02236230184150   -3.27130363813341
F         3.10751956308123    2.59212505801962    5.74664426919024
C         6.93318082734561   -0.98753477838074   -0.91040654597332
H         6.92137241120904   -1.55603724662494   -1.83634649547608
H         6.68344756365484   -1.66044807583174   -0.08998791225536
H         7.94420965956376   -0.61493483228425   -0.74854563796599
C         1.84405925424679    7.08260629265617   -2.70103783823448
H         1.53643246711329    7.01100840292070   -3.74070529303285
H         2.58594711137373    7.87575397359333   -2.61560664562074
H         0.97636259988023    7.36313317497472   -2.10404504826814
C         3.54677199518657    5.10102001874071    3.24167579382160
C         3.24758506608361    6.24249214112260    1.40728609930487
C         5.77348830644131    2.36921123168052    4.54052395222977
C         5.07513900179237    0.46553818527793   -1.94997131007131
C         6.07497278963176    1.84722731223647    2.37403173535192
C         6.43960666789062    1.06887258636111    1.29597405925312
H         7.19866007299213    0.31770085851753    1.44157434302600
C         3.22674193422130    3.89012869738578    5.41239790522909
C         2.59233880110623    8.57050985942313    2.31475302899218
H         1.57478703695893    8.63642104932437    1.92863843231873
H         3.25850883223158    9.06322612263894    1.60835503751542
H         2.62868224082878    9.10797402160595    3.25807160281945
C         3.93009075995598    4.06113659882170    4.10061170568981
C         4.81112639526920   -0.20950893530484   -3.25013215978973
H         5.11404656633394    0.42808059536500   -4.08092329556098
H         3.74914941175952   -0.42632205268852   -3.35790711516924
H         5.36134638949465   -1.14409532386492   -3.31766328202885
C         3.03377665050294    6.96926893617687    5.03007977807481
H         3.04709298070146    8.05616507989852    5.00136367923578
H         3.87383292881017    6.63976504231089    5.63651423055104
H         2.11190471863969    6.66013764808940    5.51925325767450
C         6.55884276546423    1.62574316176957    3.71114414300921
C         5.95389342466943    2.52262623300815    6.01092111534109
H         5.20463354258971    1.96251705293790    6.56722747581233
H         5.89302297132524    3.56728497601336    6.30541715032991
H         6.93270675098833    2.14868574997821    6.30144052502258
C         2.05347352836669    4.22798138973045   -4.24715783058566
H         1.51405699075131    5.04937719036839   -4.71093943068707
H         1.39966844280424    3.35715638981039   -4.22154646108330
H         2.91530637076342    3.98787143985197   -4.87002127412958
C         7.68512702712367    0.71253897243053    4.04597042688320
H         8.53312160627213    0.89375488371307    3.38734483555981
H         7.37634442014138   -0.32669443983995    3.92873925225505
H         8.00812809500378    0.85249647612327    5.07384542740902

