82
CSD_code = POLXET | q = 0 | S = 0 | Stoichiometry = C27H50Cl2P2Pd | MND = 4
Pd        9.87107398235118   15.70087240750505    1.50532249806114
Cl       10.86833642079312   14.34762041573904   -0.07374656197513
Cl        7.34554936756040   15.11637418908450    0.54803270073562
P         9.51154192490550   16.74561582453640    3.47459043378726
P        11.13094135913483   17.51854981952441    0.91605022608534
C         8.41679898556504   14.29669947202007    1.70359945561370
C        10.25322513397570   18.45591334586229    3.45243955320347
C        11.30257117994717   18.68714976928865    2.35884848939181
C        10.58379109871898   15.83637719414422    4.69300224671491
C        11.92570208170134   15.56277183645948    4.00812641734871
C        12.85259705084127   14.74358977576214    4.89951665898622
C        12.19200406377441   13.41995010403333    5.26591076836454
C        10.86443817337434   13.68110499969226    5.96806060930305
C         9.93897856590148   14.50308922338275    5.07431533212437
C         7.89505687273825   16.98956378871838    4.35241886121720
C         6.87666334332549   17.61857772343990    3.40001568131282
C         5.50349471324115   17.67604304452512    4.06275720901341
C         5.57480949007055   18.45713549854117    5.37177443151350
C         6.59733980277932   17.82891473791054    6.31430103949470
C         7.97610023003188   17.77871276028885    5.65729503637285
C        12.81121125581631   17.49884779040596    0.13904579413195
C        13.49082023081361   18.85692253880162   -0.01589678555261
C        14.81897703699812   18.67996349144225   -0.75054743870339
C        15.72607588453142   17.71178252532465    0.00377199454271
C        15.04005012809711   16.35962309721365    0.17902864355374
C        13.70983646005805   16.52735249660885    0.90562572603481
C        10.08215176767337   18.43327319354463   -0.31360420185676
C         9.81197385971859   17.47553654082335   -1.47802053663249
C         8.83919330186713   18.08043809709621   -2.48339899567035
C         7.52108491485041   18.42093466642261   -1.79778004864333
C         7.77158181913929   19.39858281215421   -0.65587772709213
C         8.75492759206825   18.80471212303798    0.34820346740480
H         8.64317840617692   13.31503837898820    1.27676921209064
H         7.83473894061114   14.17283953399403    2.62344941593205
H         9.41112096129409   19.13662098954318    3.30312549310056
H        10.67556948234780   18.66493037530462    4.44084628458806
H        12.30336197282751   18.51909835978860    2.76520904993209
H        11.26453046427160   19.71922323285096    1.99810783410068
H        10.73908368529101   16.45452725044559    5.58766573222045
H        11.73197439371929   14.99729648898763    3.07512506920522
H        12.40939025189847   16.50672532886924    3.74674899529217
H        13.79353320568683   14.56095361775977    4.37710157872504
H        13.07765398842767   15.30479086925885    5.81108685866839
H        12.01213097174840   12.84446278851957    4.35548468570308
H        12.85004562563093   12.83573008176080    5.91172868555213
H        10.38104930306931   12.73497814774718    6.21877632003060
H        11.04483896689486   14.22166329192463    6.90136049808202
H         8.99199418914773   14.66684155850770    5.59342845333301
H         9.73902980171488   13.94401072045348    4.15152845882113
H         7.54717499768611   15.97181871453009    4.57652502572395
H         7.18676622199520   18.63252333161878    3.13479383211362
H         6.81979390159461   17.02779415743466    2.48141235027798
H         4.78781897008151   18.14519351446330    3.38549939090790
H         5.15579223884685   16.66049185343672    4.26377075034793
H         5.86212211906157   19.49055251321927    5.16291287286741
H         4.59340675180655   18.47406312697841    5.84917109154068
H         6.65313857964636   18.40342930742315    7.24142059542630
H         6.28001603945115   16.81481185800981    6.56825817137602
H         8.69013354365769   17.31495245684012    6.34102102717232
H         8.31054214028474   18.79846598254247    5.45641033547794
H        12.63914722513364   17.06652647246682   -0.85590128543143
H        12.85355625251880   19.54707807417516   -0.57299700436102
H        13.68399933746490   19.29374922443193    0.96667569303386
H        14.62778328393560   18.28952187960058   -1.75254427661810
H        15.31295839750475   19.64857734187868   -0.85682225319088
H        16.66461992975190   17.58568891581343   -0.53941710497412
H        15.96307645900520   18.12916860590767    0.98598201663348
H        14.85971272678072   15.91184661238894   -0.80012426431080
H        15.68666157564309   15.68335976304685    0.74160936641184
H        13.89854978589039   16.90569427419701    1.91451991808671
H        13.20163739381364   15.56160329449891    0.98560794066802
H        10.59707645095478   19.33659294042425   -0.66661045996317
H        10.74460066297055   17.20976655519339   -1.98081548877802
H         9.37806427116312   16.54888667334295   -1.07212010726528
H         9.27293624818897   18.98633716504790   -2.91695651471807
H         8.66661183233099   17.37024872620913   -3.29357558237760
H         6.82209034240179   18.85445613239705   -2.51553933408312
H         7.07584788929997   17.50709347994035   -1.39877058744651
H         8.17920392010559   20.33148611587039   -1.05569548843761
H         6.83255190261821   19.63293506730943   -0.14969825141402
H         8.32023500985339   17.88823901103182    0.77720255810025
H         8.92095089539844   19.52372054030643    1.15407146373618

