138
CSD_code = POLXEW | q = 0 | S = 0 | Stoichiometry = C56H64ClMnN8S8 | MND = 5
Mn        8.06755961616457   10.09887799640551    4.76058450783352
Cl        6.69069379713665    8.56470470323534    3.93056232382820
S         6.38772766349790    7.87472431785231   10.30664039510287
S         3.11699484714147   12.37262609333377    7.24245790108254
S         4.00463448501614   14.87429932352972    5.32850959663310
S         8.12716851488714   14.32370363231123    0.51211093624701
S         8.70551718821632   11.45647099735244   -1.11679207346560
S        11.89243056432037    6.65310016517649    1.57107189898983
S        13.29800596279872    7.07177627581370    4.73468430287118
S         9.69584488961066    7.05151490176959    9.97089970064867
N         7.01686361012354   10.26762555055890    6.33575175712650
N         5.55784046098687   12.04774920612913    5.68850175899703
N         7.18601735042810   11.60918974337864    4.00687694093207
N         8.26309533899053   11.73393017340107    1.87281781595022
N         9.17398239924849    9.98705626394886    3.19883836248861
N        10.68487556276294    8.28670348764570    3.87565409017411
N         9.19279814265820    8.86801092721147    5.65251930736437
N         8.07126726821524    8.66702753198897    7.75090929350586
C         7.06885606079738    9.45061723406370    7.44132621609935
C         5.90528879352843    9.66128520721926    8.26979139362653
C         5.46657634357516    9.11318903823196    9.47184738724971
C         4.24278763845998    9.56100769752658    9.96596525717830
H         3.84806341558693    9.12516192287290   10.87167069494676
C         3.49860664912877   10.53705429494707    9.32794544275013
H         2.55867489463954   10.82693256992035    9.76867640779028
C         3.93608304250462   11.12344624365054    8.14039744418485
C         5.15123194054641   10.66125263641044    7.63060555267038
C         5.88439367185755   11.03309245896576    6.45188592223663
C         6.20535472360455   12.36949943305117    4.60044774921149
C         5.97554671404162   13.57530987982943    3.83134959117945
C         5.15757245214344   14.68684179842239    3.99385595053842
C         5.24029553069253   15.69105957063941    3.03793192748917
H         4.59900028423125   16.55350550285817    3.14242707995215
C         6.11797487511832   15.62644745716044    1.96823940892182
H         6.13385797890226   16.45031309836650    1.27394994612839
C         6.95262278618017   14.52483464702691    1.78665465902184
C         6.84254294112162   13.49717769580197    2.72660290112400
C         7.52318340559859   12.23348366921096    2.82930973085479
C         8.94356174261224   10.62207826525910    2.00792181953188
C         9.64144214398110    9.95224167204777    0.94020895786800
C         9.64585187594519   10.14680145174055   -0.44068950184939
C        10.42949768620049    9.26560665351058   -1.18432383600138
H        10.50883921476503    9.37873619003471   -2.25357792374636
C        11.12681269173278    8.22544658315286   -0.59623538851980
H        11.70477183505452    7.58687194758529   -1.24408037530127
C        11.09302731938350    7.99311762000531    0.77830824407700
C        10.35599938357558    8.89866591816400    1.54030917595462
C        10.07599498566024    8.98310532137455    2.95178143320283
C        10.34025425703271    8.31316946418577    5.13776653997204
C        11.06679425680676    7.62949081469010    6.17490027594019
C        12.29440541972587    6.97083345944459    6.16523540987435
C        12.68291373781176    6.33863617825943    7.34496014858174
H        13.63536806312137    5.83533109023292    7.39973822380122
C        11.87942091947295    6.36858692967352    8.47109295414342
H        12.21825149229031    5.87998671302712    9.37273388268279
C        10.66333739215985    7.04406820876107    8.49201450433518
C        10.26459086362592    7.69255104839288    7.33026059408316
C         9.09383106207363    8.45772749200011    6.96420864738729
C         6.31053270597979    8.48056838930570   12.06129242389237
H         5.79233065336179    9.44032536379916   12.01604318362802
C         5.53823408976191    7.49953947991764   12.92731868793934
H         4.54010690670032    7.32942827813691   12.53002011327604
H         5.44812249389714    7.88932339976516   13.93997619520871
H         6.05579729124399    6.54418000403921   12.97040012460461
C         7.73294138843190    8.68676879171167   12.55294111613750
H         8.27478325403446    7.74508168175885   12.55759085017384
H         7.72297304064532    9.09388435142662   13.56264840834992
H         8.26461898337445    9.37395158068079   11.90000103233411
C         1.44220869446556   12.50612548555283    8.01913931171793
H         1.14484667443357   11.49412823621948    8.30053679620806
C         0.51748297111441   13.03330641892504    6.93306969055088
H         0.87741004061351   13.99383261036701    6.57105293652456
H        -0.48973501752856   13.15763117032056    7.32602226323032
H         0.48482468019103   12.34443645887284    6.09300566981097
C         1.47100592082518   13.42936568363297    9.22653109112041
H         1.70177235738980   14.44361329998868    8.90953916799780
H         2.22065152558888   13.11689953754534    9.94999139945858
H         0.49777973866862   13.43398012286366    9.71516303383672
C         5.05998697984291   15.81686147614752    6.52146451987897
H         5.38138647314042   16.72086804447207    5.99543326493406
C         6.25846121128533   14.99069637852414    6.94781770335719
H         6.91936843957156   14.79733470408368    6.10480373267231
H         5.92400748814735   14.03677768609563    7.34974524988736
H         6.82302077363245   15.52286258929424    7.71262863602678
C         4.17554769266514   16.17349597308355    7.70337068477166
H         4.72266226056120   16.79771810197279    8.40750127662645
H         3.86246162665084   15.26321261134456    8.20851967356466
H         3.29102100998529   16.71133018644112    7.37029301593369
C         8.16001763219837   15.96141191946834   -0.35575541707889
H         7.12430944228827   16.25689564805687   -0.53170880002908
C         8.85022736307189   15.72616645262630   -1.68957435584861
H         8.29364796509485   15.00167725358228   -2.27766074243744
H         9.85498815864839   15.34199246270439   -1.53044410249580
H         8.91452101123771   16.65855685343717   -2.24711147124310
C         8.89466916387242   16.99011370869787    0.48741105023712
H         9.92466287313683   16.67544973849854    0.63848484684847
H         8.42696868904797   17.10859144023417    1.46203099537679
H         8.89600605436657   17.95524685443842   -0.01678400820243
C         8.46847476902430   10.96845656151845   -2.89064708347756
H         9.45569081006746   10.79118982740150   -3.32165933879633
C         7.82579797686647   12.15903630298869   -3.58401080594284
H         7.62142978936396   11.91785855196935   -4.62532475811229
H         8.48764215145344   13.02079640285201   -3.54864859478692
H         6.88980462800156   12.41760545422115   -3.09453508304672
C         7.59843109964652    9.72651421831600   -2.97563952401994
H         6.62104629304510    9.92877284136018   -2.54394739884121
H         8.04531592232522    8.89559147775794   -2.43435323681714
H         7.46722499917131    9.43271681281100   -4.01599889371597
C        12.16821621324754    5.43518469047637    0.19344369878945
H        11.36251382667794    5.60926975513539   -0.52184590784933
C        13.53004503580889    5.63514230483139   -0.45353353889879
H        13.63284246492846    4.97442121906359   -1.31312343352012
H        14.32081761954374    5.40208882275921    0.25570346320188
H        13.66885026852293    6.66119599169815   -0.78487817129334
C        12.02819076113223    4.03608132367137    0.77336601220703
H        12.09034192445766    3.29829822240543   -0.02446160176807
H        11.07074317768563    3.92506292737468    1.27607245145962
H        12.82287824185402    3.83780183524349    1.48841084972207
C        14.15363125224296    5.43121919794826    4.70620345802896
H        14.76216144624221    5.34969715742432    5.60941473409963
C        15.04928153585583    5.44965099592481    3.47885085339279
H        14.44562737506771    5.63359341296113    2.59377100613532
H        15.56256816767546    4.49576461252020    3.37263483043275
H        15.79087444590346    6.24069563681311    3.55831493216736
C        13.11519385255108    4.32585273917994    4.63963714834614
H        12.45390972664171    4.49695298312076    3.79349386265874
H        12.51206404253715    4.29925500118258    5.54469388109776
H        13.60320174110887    3.35955230826170    4.52143656925560
C         9.20181051478838    5.26764009258549    9.95796380254619
H        10.12920817809098    4.69519916242132    9.86602266891107
C         8.29016899259954    5.01083920986586    8.77252253850625
H         8.80759166889969    5.19705161794035    7.83345050814355
H         7.42542721741973    5.66810679671696    8.82286043124206
H         7.95027470741431    3.97651521858927    8.78130444745740
C         8.51878046842959    4.95772269142715   11.27714351201500
H         7.60062175405132    5.53444632597173   11.35418296892747
H         9.16671770466647    5.20583453011737   12.11514926269235
H         8.27215838556437    3.89883796864862   11.32719696525019

