88
CSD_code = POLZUL | q = 0 | S = 0 | Stoichiometry = C36H39B8P2RhS2 | MND = 7
Rh        1.24336204529316    3.21192812043098    2.85151322471270
P         0.65534033957757    5.07053125144957    1.57588278317859
C        -0.66012901219600    5.06600234115561    0.29623026259845
C        -0.76635226930338    3.96370015322296   -0.54536561341742
C        -1.73365393970391    3.91789816880824   -1.53165057068926
C        -2.61312778193922    4.97652915840318   -1.68722115882873
C        -2.51430002193093    6.07873125420852   -0.85464582236951
C        -1.54486833033372    6.12683758653706    0.13150740763994
C         0.07806039160730    6.47736979366560    2.59900898312591
C         0.64790168403557    7.74479969288014    2.58273047460796
C         0.14999668396111    8.74161173872960    3.40537949089590
C        -0.92088214706595    8.48829565982278    4.24450284717892
C        -1.49830623612506    7.22811670916197    4.26028191426599
C        -1.00033267135583    6.22967175950945    3.44604056042845
C         2.02478100723061    5.85822090430408    0.65745523142489
C         3.18273448305655    6.14283662171019    1.37744219455745
C         4.25035404755617    6.77516136854116    0.77185635371524
C         4.17997680665580    7.11506858439148   -0.57001343588215
C         3.04278498826059    6.81161902656800   -1.29788257833414
C         1.96652099710446    6.18794639263099   -0.69018413737178
P         3.40171664263218    2.66294053655724    1.91435525272193
C         3.70117781075009    3.08924017317377    0.16115307000326
C         4.80182177065068    3.79871377707430   -0.30206271923016
C         4.92185810415836    4.09596102769516   -1.64822348396059
C         3.94436565348318    3.70372361540158   -2.54575484208056
C         2.83240233201712    3.01481376262381   -2.09030608491393
C         2.71339463761918    2.71535418441225   -0.74765790950783
C         4.96972603184004    3.16794045260450    2.71283316421274
C         6.18409375731675    2.63811949338641    2.28085829369530
C         7.36357174031032    3.01078939013871    2.89637286861149
C         7.34473177265804    3.90651990758803    3.95472292920836
C         6.13979497393220    4.41828148336547    4.40348830856621
C         4.95728862719564    4.04745298213541    3.78601680159918
C         3.73953958260845    0.86055901916549    1.90696453644044
C         3.63896991823663    0.03872932843474    0.79126540551058
C         3.85847414369575   -1.32219989703266    0.90927539794530
C         4.17670953270519   -1.87816749365999    2.13624117853980
C         4.27794586844409   -1.06505350775603    3.25274057548876
C         4.05326352625762    0.29254341489117    3.14074118616309
S         0.17884185992633    1.35991070805554    1.66543284475465
S         1.39640594022182    1.79990065361175    4.75491317957258
B        -1.60786727146573    1.39102671453908    4.18674267327196
B        -1.00218608196846    2.34643568077250    2.83981811377804
B        -0.35280548232357    2.59992611368156    4.49784723229805
B        -0.31711638422891    0.92531956414033    5.29654920468908
B        -0.81042730554558   -0.25234724750059    4.10755186753713
B        -1.34672798548546    0.53686656201783    2.64952771143774
B         0.95129240060486    0.02709111926021    4.30535387386147
B         0.34501686172836   -0.20112424762105    2.73325235362749
H        -0.08511746352412    3.13624258574931   -0.41986781161586
H        -1.80532762886641    3.05428332295205   -2.17658330271760
H        -3.37384211035428    4.94229454742796   -2.45305040271025
H        -3.19686322761625    6.90781928072769   -0.97268719538360
H        -1.47719969092939    6.99299468122074    0.77297217919504
H         1.47975476848175    7.96019027127303    1.92834078201119
H         0.60222009883374    9.72279504618861    3.38686579657791
H        -1.30440592053397    9.26918832945574    4.88448678809751
H        -2.33516147923302    7.02405781222003    4.91186223540354
H        -1.44235723861287    5.24376324487291    3.46230931865518
H         3.22673849955923    5.87172335352014    2.42276258236632
H         5.13800184014320    7.00187748424386    1.34465640669369
H         5.01184781696344    7.61122018942113   -1.04775299000527
H         2.98878688564116    7.06671911049546   -2.34619956555141
H         1.08123441676286    5.96341327997625   -1.26674529227039
H         5.56646463684938    4.12687216927431    0.38561516911385
H         5.78595069505177    4.64251705119321   -1.99699103299350
H         4.04411530146108    3.94030328027609   -3.59468966050350
H         2.05843352021339    2.71459275255369   -2.78178562910004
H         1.84546628965197    2.18045844493436   -0.38654717093089
H         6.19823547587210    1.92830338315682    1.46504493707727
H         8.30193962261808    2.59929485257899    2.55354121965156
H         8.26888071135456    4.19540331879451    4.43350227510106
H         6.11981539642661    5.10325402399205    5.23850969884828
H         4.01043201339233    4.42527230648420    4.14695044799632
H         3.40207932555063    0.45687990830935   -0.17569244742676
H         3.78091199709418   -1.95167895397123    0.03460744525707
H         4.34487638980070   -2.94119515413868    2.22215438380358
H         4.52531395365960   -1.49142606225988    4.21333728767988
H         4.12620396411789    0.92898756348791    4.01307458974832
H        -2.70269293263259    1.57694765540071    4.58251417275169
H        -1.69268345188950    3.10921908446641    2.25448746622184
H        -0.55809710170276    3.53603148260718    5.18531984944144
H        -0.38905940702339    0.84774639284365    6.46748082070988
H        -1.30940097718797   -1.26329426221071    4.44987330426612
H        -2.17612819973410    0.18144563003229    1.89480382882428
H         1.81730131361533    4.28881693240479    3.74183267827550
H         1.67348294784530   -0.73605205086847    4.84423689905922
H         0.61671490646998   -1.13082584646752    2.05536854308312

