136
CSD_code = POMBAX | q = 1 | S = 0 | Stoichiometry = C65H64P5RuSi(1+) | MND = 6
Ru        4.14789267985684    9.21229294704276   18.05740649428453
P         4.84917138780485   10.98803084293588   16.74896239327762
P         1.97019145541056    9.84413559926445   17.45916873173999
P         3.55228721488374    7.53945337726396   19.60211001302917
P         4.38998437890932    7.68911102217915   16.33680813649846
P         6.28333762466683    8.71591664527957   18.85377873586141
Si        3.91316620326401    6.26685958956261   13.29754225853165
C         2.10193301111029   11.17423705407420   16.17404592699307
H         2.08690216953355   10.64603683628437   15.21339436365262
H         1.20819895324344   11.80514201697193   16.21954403657190
C         3.87025206791110   10.82687637912160   19.22909569575889
C         0.72374647618037    8.79945560818500   16.62188481209913
C         5.62265077708839   10.66708318251655   15.12861141460336
C         8.73379507158969    9.86008109248713   18.07032572043219
H         8.66228759151273   10.47673573413560   18.95422510260256
C         0.87047290189416   11.93484487595359   19.02453222314218
H         1.47164533678744   12.62963543196022   18.45818358157330
C         7.74322785936323    8.92194708230651   17.78765644800119
C         5.94898191582269   12.28380254998666   17.39212409241269
C         5.44739420071701    9.97076349622883   12.83251436915297
H         4.84150051713788    9.64154662112098   12.00169287095624
C         4.85615250751553   10.21534841393181   14.05751910933344
H         3.79384079652351   10.05663902631700   14.17740910268326
C         2.83414139932738    7.83379375589166   21.24706279640045
C         6.99510753494119   10.82936502707212   14.96330650380071
H         7.60041170029782   11.16977139578854   15.79170377113042
C         3.36659054242786   12.00892875766604   16.30688482972461
H         3.26768626433860   12.72842169702326   17.12691671930152
H         3.56856006429211   12.55540572986407   15.37985406324297
C         2.49269534303535    6.17244291825713   19.01571560979285
C         0.07515957967273   12.40698837283805   20.05324187768536
H         0.06697264327131   13.46302207931392   20.27814873507529
C         6.15904496563956   13.43100424103466   16.62854406829601
H         5.70331804185843   13.52341451147146   15.65237718306569
C         6.56507873854386   12.16451338633568   18.62861276801399
H         6.39091270193576   11.27628944935469   19.22309299956656
C         0.89686170674532   10.57529146605521   18.73514548753572
C         7.58294282628231   10.57337880609839   13.73852391241003
H         8.64684342062414   10.71139706557324   13.61855740034778
C         6.86396840261143    9.13959791232401   20.52848615544134
C         0.97072336952549    7.48016212303678   16.27496352164973
H         1.92050240024406    7.02461297255878   16.51689366587393
C         9.82019061581141    9.99835153389472   17.22542493033476
H        10.58617312448426   10.72322072204785   17.45726579004742
C        -0.51101278833140    9.36796266051747   16.30695973918541
H        -0.72328044103476   10.38903255271293   16.59210379091792
C         7.84606843500651    8.15378783264034   16.63014822684518
H         7.06934781662974    7.44251818508896   16.37370672026700
C         6.81111070096178   10.14995242829425   12.66964231349918
H         7.27129243607209    9.96100092552003   11.71151523246626
C         3.57585500470590   13.08805835600282   20.53739149616785
C         1.16110514337731    6.08110412036026   19.40859510364494
H         0.76371337699438    6.78818910227294   20.12278323488462
C         2.73322040953719    6.77082461175881   22.14435744646519
H         3.07625000655725    5.78632151681149   21.85777359536065
C         6.24094947044132    6.88128236276660   19.11518692060201
H         6.08000236378068    6.37920467247097   18.15419235706294
H         7.19801718331930    6.54381804472353   19.52636824262089
C         5.09674558721159    6.60222144741352   20.08054400722842
H         5.37095235727147    6.95863858720627   21.08061790535383
H         4.87653228826201    5.53233433027589   20.14102845422234
C         8.53436253766487    8.99426059956876   22.24833540038747
H         9.52612593453500    8.70888453410005   22.56569443964772
C         6.95979843705273   14.44682869247037   17.11517735426586
H         7.11517322111189   15.33627883337662   16.52312956888039
C         1.71522330908863    8.22945417079331   23.75402790504227
H         1.27773571511199    8.38103793466365   24.72913162666647
C         0.00766968357282    6.73704331471181   15.61382905847493
H         0.21411804005545    5.71043213746799   15.35106577564295
C         8.93505718047613    8.29372373603754   15.79101062064439
H         9.00634663103014    7.68622614877244   14.90156585021419
C         0.35474120671201    5.07357976133694   18.91172522214337
H        -0.67695792657410    5.01124570492384   19.22355891841044
C         8.14073806300143    8.76483386530725   20.94367287595038
H         8.82421802371930    8.29845993183387   20.24698750322203
C         3.21397165790092   15.47093374706228   21.96082934209275
C         2.19551092181813    4.22201540991239   17.63363224681279
H         2.60494570949819    3.49330501525942   16.95021871122946
C        -0.69043631323180   10.17818592418701   20.50113418090148
H        -1.30093709560427    9.49377904921440   21.07113200188219
C        -0.70047603263152   11.53202933382215   20.79550989605257
H        -1.31637014486762   11.90613188292237   21.59910914487361
C         0.86849418816101    4.14358352888390   18.02342407091346
H         0.23812854176692    3.35514444031259   17.64154194311761
C         3.92722503202192   14.31282384684165   19.96826215679371
H         4.34941244591851   14.33797467196347   18.97229138595391
C         3.74231867632691   11.88675828915702   19.80594767242814
C        -1.46871865044247    8.62496245183590   15.64623714048810
H        -2.42136001253727    9.07170504378310   15.40446941855732
C         0.10673373540056    9.70251919751367   19.47778150803072
H         0.11979217397229    8.64864717766329   19.23381834806620
C         3.00167631165980    5.23419520489174   18.12032011415522
H         4.03608149595122    5.28726899234597   17.80200965613885
C        -1.21140478158059    7.30750983007827   15.29598371752639
H        -1.96307158440893    6.73023677558116   14.77954222861539
C         7.36508470577828   13.18323591987104   19.11387378915772
H         7.82908039128604   13.08579605946392   20.08426668146794
C         7.55891276313790   14.32809269431634   18.36000845690260
H         8.17586786185165   15.12816924675823   18.73952876679872
C         4.17301736340752    7.26263313789153   14.84561576347191
C         2.17994076341545    6.97308827119368   23.39312608088735
H         2.10387258888894    6.14903876708397   24.08656541364010
C         7.65918029379854    9.58211108606104   23.14957224073497
H         7.97320547401358    9.75696541153119   24.16726907813589
C         2.37119043886746    9.09059714090002   21.61242760591556
H         2.45461804194737    9.91223977637333   20.91444981611642
C         3.74706168000071   15.48328870876642   20.67566615001796
H         4.02476979455459   16.42604460363950   20.22569136793542
C         1.80924678519420    9.28388389206846   22.86323935707722
H         1.43741475333577   10.25968073823321   23.13895240755091
C         3.00309432603730   16.75058597506311   22.70826528035100
H         3.82565156214185   17.44080947235148   22.53319474688976
H         2.91607516092977   16.56874736050228   23.77659535229301
H         2.08566470707244   17.23434322161489   22.37075782688383
C         9.92840568667058    9.21155226389292   16.09037157713917
H        10.78263136924814    9.31677335450274   15.43912618016532
C         3.04565136768582   13.06898561006413   21.82657958462871
H         2.77733904819717   12.12319193528390   22.27501998435189
C         5.98527929338021    9.71653888333717   21.43818550565200
H         4.99265144036358   10.00050398241848   21.11350975676684
C         6.38411518543799    9.93813513671686   22.74470159609477
H         5.69559679015330   10.38788701752331   23.44396343882462
C         2.86843199233848   14.24743204400552   22.52297882424538
H         2.45634941677606   14.21883013545371   23.52187420383427
C         5.54299173541032    6.22836399752719   12.31857996969296
H         5.94829763542397    7.22609526589502   12.18194571480526
H         5.39714682702096    5.79114721798376   11.33557725958918
H         6.29497960823505    5.63676929122310   12.83191457085401
C         2.50096661453015    7.11495834837321   12.34338742293084
H         1.61691767229696    7.22084503332102   12.96660871357990
H         2.21946150154526    6.53921395010447   11.46705437949233
H         2.78479287886034    8.10667594831557   12.00519296471082
C         3.39364931004691    4.51802653155540   13.84693095963223
H         4.16858031566772    4.04406293056304   14.44150242685127
H         3.20271739242949    3.88121908353218   12.98889028631493
H         2.48826329469735    4.54794029263988   14.44515828424897

