61
CSD_code = POMFOM | q = 0 | S = 0 | Stoichiometry = C24H32N2NiO2 | MND = 4
Ni        3.44254981165333   19.31111017385221    0.06950947661378
O         3.39384895426628   20.23124477483798    1.68064323507595
O         4.61994771967780   18.13326185321656    0.83999066184576
N         2.33677196447728   20.66906199625679   -0.78814774462271
N         3.27620580414999   18.29534460069090   -1.47416164434640
C         2.92494450290560   21.42611862056772    1.91808934612415
C         2.71944975322988   21.80992412745947    3.25853588082187
C         2.22839379482264   23.05297130060447    3.58348088612664
C         1.91229334884432   23.97041326897486    2.59216499048463
C         2.10632952622609   23.62002306211399    1.26947689395601
C         2.60465028506076   22.37627073694049    0.91993207351125
C         2.84863537823764   22.03124055627096   -0.53130061523966
C         4.35008830540444   22.09573522402609   -0.83718188037843
C         2.21846889511191   20.32285668743600   -2.20805427234394
C         2.23037161567260   18.79031179123710   -2.38150361714901
C         2.48137787416430   18.47332702992892   -3.86124545048821
C         0.89176745663097   18.18583501510630   -1.93195204418109
C         3.85973720198027   17.16280991413062   -1.71601198696762
C         4.81526507211226   16.52233322791324   -0.89303459908039
C         5.41407807120128   15.32852409201744   -1.34779621502821
C         6.33761954189723   14.67251682575247   -0.58654609081803
C         6.67663097947383   15.21056479283672    0.67026702648191
C         6.12947867552743   16.36007942977167    1.17641498415965
C         5.15714975919400   17.06297302056768    0.38448052320198
C         6.99736474325555   13.40562896981992   -1.04347284297773
C         6.50648914501172   16.91763024929693    2.54163003138097
C         5.25354543066223   16.97256355723134    3.42665649735576
C         7.55830498474912   16.05981807419749    3.25267391872117
C         7.07757156570288   18.33238357101306    2.37267181207195
H         1.41000642957401   20.61701434012560   -0.35786836380029
H         2.96795336681325   21.09026843309762    4.02312462610518
H         2.08501262863429   23.31365461565721    4.62256688921386
H         1.52193128108987   24.94391193528397    2.84660500300210
H         1.86936137246927   24.32852827777848    0.48583358148725
H         2.30907033094808   22.74862000182376   -1.16958494886672
H         4.55719355721546   22.07858088229809   -1.90519089052221
H         4.84726752354817   21.23936310262083   -0.35984719772825
H         4.76446520766774   23.01005673458828   -0.42104544913169
H         3.08675447564034   20.72872871677235   -2.73157576322548
H         1.31202864544009   20.75524376009225   -2.65185374160733
H         3.51534182099656   18.68409906957884   -4.12653276933018
H         1.83284227699832   19.09547005616854   -4.47363608640546
H         2.25983077257102   17.43584703654563   -4.09632117695970
H         0.90323599621430   17.10779518403151   -2.07726717507476
H         0.06885914631073   18.60672259020583   -2.50535367029181
H         0.72668895141137   18.37635367529171   -0.87129725926545
H         3.61572738856519   16.62907281997145   -2.63300861685526
H         5.13084482678354   14.94363072001864   -2.31847440930438
H         7.40841177571078   14.66563331158559    1.24530389954393
H         6.63743492915102   13.11293712142596   -2.02680345579453
H         6.79268134618895   12.59594610094968   -0.34365855301325
H         8.07794103384610   13.53612148633955   -1.09407666467454
H         4.52132307746418   17.65262117366006    3.00234112741080
H         5.51790951976289   17.32553865399925    4.42102137444695
H         4.80919942663099   15.98272020164925    3.51586355132053
H         7.19132146076416   15.05117221356546    3.43006967108858
H         7.78839049040148   16.50592016383938    4.21803071324952
H         8.48124646428085   16.01026863568014    2.67879442586301
H         6.31998022050416   19.00000904764618    1.97373973796528
H         7.93137404435756   18.31899260721363    1.69733472101185
H         7.40294005073810   18.71798078642711    3.33625763583355

