79
CSD_code = POMGAZ | q = 0 | S = 0 | Stoichiometry = C30H44N2NiO2 | MND = 4
Ni        8.50204079356705    5.65334248493473    3.25873613607146
N         8.93237477403430    7.59048276890871    2.92585011452174
N        10.27068500670386    5.26766287599088    2.38235046338730
O         6.78761927510570    6.06186623637631    3.84540315970195
O         8.26968177774117    3.87414314724126    3.74082717493665
C         6.43757165386170    7.21756564323703    4.35713649773981
C         5.63977919937245    7.28903708656524    5.53317148196024
C         5.22168210010290    8.53278632389126    5.97079103033120
C         5.57197612928384    9.72051245608170    5.33918416959284
C         6.38596870821437    9.65264077478724    4.22028694180030
C         6.80469959319474    8.43221986242885    3.72898124436298
C         7.72998497435235    8.35530831513839    2.54310913093860
C        10.04690719416311    7.65860686547020    1.97087622268068
C        11.03102182027011    6.52272699253130    2.30498255449257
C        10.97091034250098    4.15150516308424    3.04627635470312
C        10.20685195900680    2.87747260634526    2.79861987561811
C        10.82246526824625    1.78868122735386    2.21248861753202
C        10.10768312517938    0.63268777439285    1.94874907872991
C         8.75178762488071    0.61256361700304    2.25753746789781
C         8.08562304247279    1.68644826867197    2.81852277956734
C         8.83075719243295    2.85881082016128    3.12894222461987
C         5.27957226898449    6.00844118484694    6.27054880429935
C         4.42900244383277    6.25830965417523    7.52032740618580
C         4.48822278387298    5.09215744474487    5.32995399717493
C         6.57610093924408    5.31281626118244    6.71020454706174
C         6.59268201810538    1.65131399732034    3.10732374248037
C         5.91070090321568    2.77639590713170    2.31544701202312
C         6.36683279385910    1.85906257160099    4.60946453971915
C         5.93849072710114    0.32505116714270    2.70596313654054
C         5.08384356145868   11.04347559795968    5.85094055691091
C        10.77772313685233   -0.56999253584158    1.35319928584393
C        10.78534302256690    9.00051870638529    1.97831952632556
C        11.92513858909853    8.97920787559233    0.96288802274861
C        12.89332869945905    7.83827471128162    1.25951640601812
C        12.16098585521769    6.49890199741296    1.27120266611901
H         9.25374725381079    7.97677032174439    3.81966753188482
H        10.06519486663077    4.95886201665540    1.42642859326651
H         4.60561164920200    8.60658180032298    6.85267123455669
H         6.69151819395580   10.56396495018805    3.72180016559452
H         7.24764658821988    7.82853272401399    1.70964603397904
H         7.98948095513501    9.37004744285021    2.21581014006617
H         9.62945384315623    7.48063644030094    0.97074197411888
H        11.45593032971405    6.70677949693940    3.30091444319910
H        11.01360050790081    4.37361314090447    4.12047782467198
H        11.99529332191607    4.04184576123896    2.66840878853279
H        11.87519594382616    1.83945113166447    1.96438100247386
H         8.20834924696408   -0.28965489449748    2.02653467729953
H         3.47912697744315    6.72309997371358    7.26508843639712
H         4.95321690484726    6.88566112004360    8.23834063786240
H         4.21686384483943    5.30534023267331    8.00120409070225
H         5.09276468987947    4.84678380264605    4.46393639149768
H         3.57828314394459    5.58919883860981    4.99836039525048
H         4.21689915942926    4.17325961833805    5.84463298588380
H         7.19864802991759    5.08149097316671    5.84782107832221
H         6.34499354432862    4.38392911977816    7.22663831503928
H         7.13671386443028    5.95660795319084    7.38648284686477
H         6.06087812082372    2.62781664812798    1.24709091143303
H         6.31907339969426    3.74515854878895    2.59688335685106
H         4.84224364900076    2.78125088023160    2.51864859310912
H         6.86682450773043    1.07620759996451    5.17708355761547
H         5.30323989139945    1.82929864306243    4.83498587581621
H         6.76466410005355    2.82213864934093    4.90909060421373
H         6.36167761342838   -0.50849839868331    3.26234529863077
H         6.04677101652065    0.13574679631534    1.63996816498042
H         4.87475082221190    0.37197348640093    2.93078991586719
H         4.72220685809932   10.95533332695908    6.87259029874986
H         4.26396991282974   11.40902832039066    5.23093242151813
H         5.87839098280117   11.78781039071874    5.82364919494875
H        10.06923863236833   -1.16676763464924    0.78267520321086
H        11.18937546695959   -1.20114285845751    2.14268930433262
H        11.59661078609501   -0.27599608554367    0.69913970353097
H        10.09817617746651    9.81345026000629    1.73805473042742
H        11.18905011142083    9.18493504509103    2.97788483554504
H        11.51279644200545    8.85482671131727   -0.04099904185879
H        12.45698341973609    9.93144800103405    0.98835726129907
H        13.36175183415334    8.00257421168695    2.23240418964297
H        13.68422319785583    7.81829579879262    0.50840212199345
H        11.74067016742041    6.30243550831136    0.28086461743852
H        12.86796073288231    5.70006833477726    1.50065892260021

