136
CSD_code = POMJEJ | q = 0 | S = 0 | Stoichiometry = C53H73B2N5S2Zn | MND = 5
C        -1.66275411087478   -3.89779501493602    4.46054251974914
H        -1.66275500822001   -4.97771826544963    4.46054323848009
C        -0.86364810895471   -3.20494541306245    5.35408249146649
H        -0.23385867449630   -3.72412356227520    6.05746295697373
C        -0.90051266210018   -1.81295659059706    5.33200160930575
C        -0.17576395732946   -0.94837941573307    6.23919641547170
C         0.76052398168483   -1.21476612411522    7.24266966771515
H         1.16117578081972   -2.17065450011491    7.50349903368244
C         1.06334349259862    0.01411768571734    7.81025821767712
C         2.03184455210107    0.28168342442208    8.93493465962759
C         1.30995112184731    0.90383353093527   10.13927952020381
H         0.92866852986635    1.89825901351197    9.93198909352961
H         1.99959289240788    0.97726154544056   10.97699325418825
H         0.47441997229599    0.27490157604855   10.43972524499132
C         2.63967573843348   -1.04988696395034    9.39756237379050
H         3.17944246904291   -1.53363057258538    8.58751731659370
H         1.86868791713296   -1.72359306158371    9.76304741915950
H         3.34116184235602   -0.86685548946003   10.20795733604841
C         3.18447788696652    1.17460569121579    8.45297043228824
H         3.68924355928870    0.70908503402996    7.60898016845665
H         3.90745416932567    1.30072976521902    9.25562390914170
H         2.85180213572102    2.15973905034372    8.14286006357212
C         0.16272120123496    2.35489383866495    7.35166787746131
H         0.92587090115877    2.69812346043250    8.04543477792988
H        -0.82696492706928    2.52816930441101    7.78918604242292
C         0.27836170302459    3.12752233885178    6.03489955456962
H         0.19737061190599    4.19119225037768    6.25913342757673
H        -0.58566400589177    2.87354965342959    5.41057988022986
C         1.58009551378384    2.83693758072916    5.28642623568942
H         1.90343443611038    1.82347021722416    5.53449758298725
H         2.35936452447782    3.49197138119428    5.68020359777329
C         0.89218841513998    4.43042744275369    3.15432391779533
H        -0.08176914844984    4.67008227913528    3.60424562266419
C         1.85552469388846    5.54124614818092    3.60494513192034
H         1.50408885948806    6.51096275444159    3.23665165972952
H         1.82428098985883    5.58295164969306    4.69635125641431
C         3.30946492902915    5.35735475611698    3.16092471196446
H         3.41834528820891    5.69794123799387    2.13300071425075
H         3.94123613801982    6.01646952927377    3.76677878592104
C         3.84997198884643    3.92916980739483    3.28368548130654
H         4.12355692636099    3.74633151586737    4.32627850844465
H         4.77168090069373    3.85859221164687    2.69592923058702
C         2.87754182716343    2.81534803580983    2.85671183073359
H         3.38597919450165    1.86853238589435    3.09016709973571
C         2.63403280039889    2.79631792393160    1.34008835591679
H         3.59085961375896    2.72629100287020    0.81047748388654
H         2.07237903376860    1.88647037758203    1.10795040917273
C         1.86498669491272    3.99982398316506    0.79038545790023
H         1.50957455246184    3.75062774347249   -0.21576840147099
H         2.54507838021472    4.84125776298621    0.67123571617943
C         0.66204760280000    4.42675511829781    1.63523513327828
H        -0.16348427724007    3.73793479969474    1.43421367124007
H         0.34158312178875    5.42083174587403    1.30400844240259
C         0.80885748527246   -0.04196078679539    2.93919121487526
C         1.82429448595618   -0.47902551658960    3.77752617321432
H         2.28503570874146    0.20614827706935    4.46909075379075
C         2.25060675760212   -1.79410307995366    3.72445036254999
H         3.03787951794622   -2.12453159618477    4.38702869713919
C         1.67598395153221   -2.68487153118991    2.83484226718966
H         2.00575010767527   -3.71280862532552    2.80356009083538
C         0.68489447544808   -2.24355893091466    1.97302686420192
H         0.24304099626124   -2.92596612063675    1.26087644689845
C         0.26072200414498   -0.93023621781087    2.01828598450462
H        -0.50595624977374   -0.57871415515998    1.34393915293248
B         1.49036262524215    3.01565721695636    3.66753615662283
N        -1.66275293384676   -1.16117264107923    4.46054144691622
N        -0.41786926108455    0.36212658968869    6.20628536568852
N         0.31639303592581    0.93093299510583    7.14813319007041
S         0.13524644540429    1.60205906079103    2.97640963847477
Zn       -1.66268680919643    0.92383172956066    4.46049758145661
C        -2.46186061597984   -3.20494569008017    3.56700269016607
H        -3.09165000560342   -3.72412428633209    2.86362234914332
C        -2.42499568447490   -1.81295696753471    3.58908335346641
C        -3.14974596816482   -0.94838040986848    2.68188977470665
C        -4.08603293441536   -1.21476828223979    1.67841561409804
H        -4.48668102273410   -2.17065760607742    1.41758374960975
C        -4.38885591332757    0.01411519422685    1.11082849436898
C        -5.35735399268385    0.28167778159341   -0.01385201511032
C        -4.63546030224872    0.90382570085673   -1.21819814692768
H        -4.25417396357232    1.89824963133264   -1.01090846167007
H        -5.32510179987439    0.97725633759586   -2.05591192613297
H        -3.79993131011964    0.27489128291804   -1.51864446428177
C        -5.96518371200930   -1.04989288087410   -0.47648187759900
H        -6.50495139599394   -1.53363735986511    0.33356193900031
H        -5.19419489616833   -1.72359845343258   -0.84196564560842
H        -6.66666859292587   -0.86686269553235   -1.28687827782267
C        -6.50999005699640    1.17459904872093    0.46810725087785
H        -7.01475541476420    0.70908066242117    1.31209891177621
H        -7.23296622185037    1.30071755080899   -0.33454728932975
H        -6.17731704829101    2.15973470375593    0.77821331895346
C        -3.48823722795542    2.35489166445026    1.56942198349419
H        -4.25139386996576    2.69812096194489    0.87566246812636
H        -2.49855528505389    2.52816548690571    1.13189166939391
C        -3.60387336413921    3.12750619838935    2.88620222475965
H        -3.52288811284650    4.19117595077027    2.66196445860875
H        -2.73983638226319    2.87353884919034    3.51050684441040
C        -4.90557790656164    2.83693305168837    3.63473538197458
H        -5.22892862719683    1.82347499063023    3.38664910510579
H        -5.68484753188041    3.49196476582922    3.24095525052713
C        -4.21769338997814    4.43042779793578    5.76674768302589
H        -3.24373087321169    4.67008465186052    5.31682786097298
C        -5.18104243106692    5.54124402827684    5.31614021315316
H        -4.82960434788258    6.51096154986596    5.68442929285220
H        -5.14979758366416    5.58294630789394    4.22473485173455
C        -6.63499018545860    5.35736591370996    5.76014645544101
H        -6.74387552627125    5.69796346452118    6.78806337902527
H        -7.26675407247636    6.01648472817751    5.15429045508799
C        -7.17551155624736    3.92918500098286    5.63739772595709
H        -7.44908694305737    3.74634287002723    4.59480303043399
H        -8.09722455209817    3.85861587837092    6.22514774050814
C        -6.20310612420691    2.81534627805989    6.06438184075756
H        -6.71153557430704    1.86852728485570    5.83091650857908
C        -5.95956061329012    2.79631864789233    7.58099781400565
H        -6.91638497717768    2.72630293498585    8.11060830358017
H        -5.39792356531000    1.88646326113552    7.81314248889471
C        -5.19049406151024    3.99980355487126    8.13072140825163
H        -4.83508103897901    3.75060184336839    9.13687434971908
H        -5.87057944273642    4.84123650578133    8.24988678650159
C        -3.98757572663236    4.42673547738340    7.28584115871238
H        -3.16203389793646    3.73793030587143    7.48686811075934
H        -3.66711328285810    5.42081227172342    7.61706196065061
C        -4.13437528745544   -0.04198781209769    5.98183762225063
C        -5.14983536606734   -0.47904474279038    5.14353090176566
H        -5.61056570868851    0.20612751305327    4.45195724624013
C        -5.57615006701054   -1.79412042047129    5.19661571575426
H        -6.36342175286000   -2.12455063871039    4.53403774298561
C        -5.00151941194202   -2.68488700155001    6.08622075363886
H        -5.33128599546119   -3.71282396725315    6.11750617858781
C        -4.01042452666379   -2.24357300981594    6.94803024825167
H        -3.56856697635942   -2.92598065848187    7.66017823967086
C        -3.58624219035690   -0.93025308779065    6.90275574455084
H        -2.81955703590973   -0.57873027560307    7.57709489101933
B        -4.81587627208881    3.01562392322447    5.25363560051684
N        -2.90764116548875    0.36212568213569    2.71480115330198
N        -3.64190801164693    0.93093146015361    1.77295619724748
S        -3.46063565138530    1.60197904804640    5.94443609142873

