136
CSD_code = POMJUZ | q = 0 | S = 0 | Stoichiometry = C53H73B2FeN5S2 | MND = 5
C         6.86546565893153    2.24673515525832   13.34631561714329
H         6.86537552585653    1.16789172338126   13.34615452018144
C         6.12206573269342    2.94056012586229   12.40394020779700
H         5.53511832058234    2.42407957263339   11.66258556727865
C         6.14800075486461    4.32857454376879   12.42924426982591
C         5.48966063165548    5.25518776546710   11.54579096083701
C         4.70041608444598    5.16439658840897   10.39497765310612
H         4.36556058264853    4.26422832966863    9.92625898658270
C         4.45495258272567    6.46912590391064   10.00275947689577
C         3.65253898728559    6.92999859366877    8.81265676824346
C         4.50453455014337    7.81502767257703    7.89132443468629
H         5.43325361186263    7.30734655079225    7.64016585906922
H         4.75107362516276    8.77093783096402    8.34088474972654
H         3.96143347801468    8.00895929397101    6.96915995277579
C         3.21261308287887    5.70310100585969    8.00236746305919
H         2.64125713797643    6.02494562116258    7.13495466216074
H         2.58140693937832    5.04876978491546    8.59790443465546
H         4.07499180811667    5.14147821439494    7.65260795111409
C         2.38443359171217    7.66443604507734    9.27273740974274
H         1.78693536632006    7.94051540776883    8.40699052410066
H         2.60431798388636    8.56925281622625    9.83084734229551
H         1.78660347105509    7.01389660185706    9.90773999911814
C         5.21253280057803    8.70401893280279   10.97702058218843
H         4.43433218989643    9.16950775447842   10.37599960707163
H         6.19400976180833    8.98322409493939   10.57703644022999
C         5.08916625793252    9.17672700336027   12.42597089706915
H         5.21791375039786   10.25859165633240   12.45035053123298
H         5.92502616506691    8.74220168237953   12.99877032444202
C         3.75936411378277    8.77630092065078   13.06854162991673
H         3.37638288448695    7.89308395084068   12.55300374330430
H         3.03001494620684    9.56334802034441   12.87121532922871
C         2.45411858316229    8.12163354738019   15.40299880249963
H         1.92634078646345    7.28330249172559   14.92591297571660
C         1.51443643903330    9.33395961074739   15.28131978451573
H         1.24882217835653    9.44038180035701   14.22655245848231
H         0.58463273268928    9.13517301949348   15.82514187146207
C         2.08728765033801   10.66406003078458   15.78184357788077
H         1.96542034316065   10.72592139146084   16.86166326617067
H         1.48371844316225   11.47682590709977   15.36313698437334
C         3.55391318560694   10.91953539639159   15.42085179454588
H         3.92297645740101   11.73884858277748   16.04751362396510
H         3.60507189489662   11.26235073881205   14.38466423185349
C         4.48335755025832    9.70119499568592   15.55060790957269
H         5.46637065050467   10.02994357159646   15.17929047502306
C         4.70225079087419    9.27725529174394   17.01181095083449
H         5.48978700285769    8.51691977498313   17.02151941012608
H         5.06387522321624   10.12897720151311   17.59997743905142
C         3.47408829292830    8.69235979037049   17.71203517271755
H         3.80670509063268    8.18046014339617   18.62202123437668
H         2.82025759183004    9.49819385491199   18.03928856119519
C         2.67910085655351    7.69855879242226   16.86257140327699
H         1.71436676683503    7.52123850282103   17.35083314148504
H         3.21119530024706    6.74262687179655   16.85361504618313
C         4.28738091681684    5.39264895819606   14.70049063965287
C         3.31419458481791    5.18809594014375   13.73221690813993
H         3.01328278710425    5.99826622946494   13.08956620349148
C         2.72518040839480    3.94438745145333   13.59352240616666
H         1.96871887442520    3.79503540056626   12.83647843422358
C         3.10143026383611    2.89406170097170   14.41249290783390
H         2.64325829666060    1.92315570795852   14.29603623979043
C         4.06360362815472    3.09727283463098   15.38844391834401
H         4.35674131435527    2.28539069448816   16.03802449556786
C         4.64914436873502    4.33900022949698   15.53554772081850
H         5.39778519878687    4.50655722882699   16.29593213143691
B         3.85345105979173    8.49010879228818   14.67136375735149
N         6.86575979805091    4.99288826491882   13.34666669001704
N         5.69728791419541    6.54704540090785   11.83103029277928
N         5.08068862011728    7.26798069272172   10.90569104199294
S         5.15137375974339    6.92265384708732   14.91480922278731
Fe        6.86608089026577    6.82319121221557   13.34681637043182
C         7.60902118155474    2.94016142368442   14.28887023381216
H         8.19589886625080    2.42337251774036   15.03005908681316
C         7.58338435663027    4.32817984120472   14.26392038334803
C         8.24187052462808    5.25446186772285   15.14760661524051
C         9.03068450502461    5.16339623692029   16.29869127703996
H         9.36518073094229    4.26311070979299   16.76743505299413
C         9.27627155222081    6.46803626548700   16.69112705036450
C        10.07822642656635    6.92862476303168   17.88164293577315
C         9.22599767256030    7.81378748660567   18.80264624744890
H         8.29696315461533    7.30638376516295   19.05318788586652
H         8.98003780801070    8.76986962657990   18.35313152694553
H         9.76861522865945    8.00736782337916   19.72516466685789
C        10.51751039489681    5.70155071117124   18.69201206648886
H        11.08853799389566    6.02318927739182   19.55971747939632
H        11.14883027116468    5.04711788897612   18.09670721946484
H         9.65483407717575    5.14010426769154   19.04131843186374
C        11.34666520917079    7.66284269809730   17.42216265040457
H        11.94375806023953    7.93881443663398   18.28822112722327
H        11.12718205282516    8.56770445790291   16.86395324543882
H        11.94469862032431    7.01219251623063   16.78745951305583
C         8.51915931937945    8.70318635223953   15.71696975478194
H         9.29746056034201    9.16857615374707   16.31794649181365
H         7.53774352731959    8.98236242942437   16.11712941140414
C         8.64230240676408    9.17621935966908   14.26810335938514
H         8.51326708061956   10.25805802268608   14.24388904149736
H         7.80652022600139    8.74161568533843   13.69520147416793
C         9.97220355881020    8.77617833855445   13.62551473046243
H        10.35563334172738    7.89321100054271   14.14117395333115
H        10.70121308974936    9.56362324230728   13.82254394825987
C        11.27756786798930    8.12181074077581   11.29093642679051
H        11.80579006750956    7.28383411947669   11.76813146592397
C        12.21672931994090    9.33453727869061   11.41243755451604
H        12.48234575396138    9.44130120311637   12.46717469559469
H        13.14658811790002    9.13596875175785   10.86862611629488
C        11.64327301809760   10.66429641567439   10.91168341498745
H        11.76503967364777   10.72590334681392    9.83182694314896
H        12.24653163592445   11.47742351253873   11.33014788821079
C        10.17656900085546   10.91940007744311   11.27263092065052
H         9.80701748236097   11.73846254452709   10.64591668074156
H        10.12529161117769   11.26221873991058   12.30879412376026
C         9.24785299678717    9.70052289117058   11.14314813854345
H         8.26476254411856   10.02886916984949   11.51456796134664
C         9.02905880929174    9.27628583914314    9.68200265253816
H         8.24192263947108    8.51553959329134    9.67238429060425
H         8.66701030430108   10.12771935395330    9.09365961978017
C        10.25745060903180    8.69172175136945    8.98195313866989
H         9.92499550812444    8.17945410674083    8.07211861292162
H        10.91081256298470    9.49786945780857    8.65452396703678
C        11.05289650307337    7.69830122296615    9.83145535170707
H        12.01772204511187    7.52132795280053    9.34324003021688
H        10.52127651407987    6.74210476274430    9.84072622484492
C         9.44556698140673    5.39202086592576   11.99461973881479
C        10.41877132030341    5.18831405544201   12.96302890617612
H        10.71951944374798    5.99896690303339   13.60513696016403
C        11.00810734431600    3.94485878776491   13.10248943134259
H        11.76462658741372    3.79620449253246   13.85959049931283
C        10.63203830988301    2.89389514435123   12.28425725536823
H        11.09051899596306    1.92321185467679   12.40126853403923
C         9.66982687758165    3.09625854410461   11.30816168487087
H         9.37694636599501    2.28392437809936   10.65904571942126
C         9.08406042808606    4.33777154364631   11.16021460934189
H         8.33534526158212    4.50465573924459   10.39977191249646
B         9.87818845026796    8.48991388850655   12.02270938668101
N         8.03460078933490    6.54638709714919   14.86244887888569
N         8.65100934033598    7.26712166132637   15.78805932363636
S         8.58128824736627    6.92171198630696   11.77932668962955

