41
CSD_code = POMJIL | q = 0 | S = 0 | Stoichiometry = C19H13N3NiO5 | MND = 6
Ni        3.50009465721498    7.45455199931105    2.74579288870912
O         4.88954931810244    8.77605821403448    2.21968863219358
O         6.76613808663936    9.68789520009905    3.00761253306185
O         2.29739563438440    6.27329157482277    3.70025118066852
O         2.11661285653894    5.19495547741058    5.64348297046196
N         4.39415157952939    7.46489742322350    4.28938874199157
N         2.61578801287500    7.31953464221947    1.12098556154960
N         4.73987129177730    5.72968897097864    1.75337083446075
C         5.52855093970466    8.15728922170048    4.38278846988309
C         6.30403854170193    8.09341148313494    5.53062958068935
H         7.21573816726206    8.66814089584959    5.57733619047538
C         5.87719121166478    7.28746936442052    6.57806458401593
H         6.46110528210412    7.22116216254429    7.48447791526106
C         4.69985964087730    6.56205474435768    6.45098961828956
H         4.33276932134164    5.91455095482002    7.23167559236636
C         3.97356893807416    6.67354037940702    5.27472370304332
C         5.79739438908296    8.96177908813880    3.10082414832972
C         2.67085592347367    5.95919676918485    4.88120436221851
C         1.56155091779741    8.05736710261406    0.82928375868381
H         1.23374309743640    8.75662226298570    1.58756252090104
C         0.88101705980477    7.96136088921244   -0.38708843392183
H         0.02570669854410    8.59277647478621   -0.56753556509320
C         1.31506129843874    7.06516891477121   -1.33200511989305
H         0.81780582727858    6.96683820203169   -2.28579180174560
C         2.42666055435394    6.25766797406378   -1.04212768409893
C         2.93134842204208    5.29648367320021   -1.96565027754462
H         2.43503711509489    5.20424240407321   -2.92039603221138
C         3.99741908368524    4.52016465984136   -1.66006849266452
H         4.37557790931494    3.79351591180782   -2.36401413954613
C         4.64605109193784    4.63709637422697   -0.39819074978069
C         5.74631218323010    3.84521297899971   -0.02845063516729
H         6.13285876423101    3.11302931181390   -0.72289558433392
C         6.30869878725329    4.01638107167017    1.21213049639595
H         7.15353013921551    3.42596420035145    1.52970625058673
C         5.76478322943295    4.97689012436421    2.07336794226474
H         6.18838772426860    5.12831304102737    3.05808113674742
C         4.17626615389093    5.58111693087337    0.54191678203068
C         3.05071228666387    6.41522115773469    0.21578866551320
O         2.37013482449048    9.60882649814558    3.31621474001642
H         2.42873559198401    9.71832067307828    4.26969840129358
H         3.08262744726382   10.12345060267296    2.91457631390162

