144
CSD_code = POMKAG | q = 0 | S = 0 | Stoichiometry = C53H79B2FeN7S2 | MND = 5
C         7.63085088923862    1.27420110411281   -0.08930179913855
C         8.11368960948433    0.29251859451415   -0.94245585608033
H         8.65595486159635    0.57682924281973   -1.82979971767726
C         7.88812856026184   -1.04091687721073   -0.63123927149339
H         8.26089050300787   -1.82181689699028   -1.27540330980633
C         7.16756110363068   -1.35715160270805    0.51127089638745
H         6.95906864047135   -2.38071356073361    0.77692278020896
C         6.70357125847954   -0.33099469377865    1.32199700280644
C         7.75980412410902    2.69699625906494   -0.24489165120951
C         8.26856120748025    3.53982299437857   -1.23957368289102
H         8.70705111999017    3.22987086994426   -2.16349063013665
C         8.07260154226805    4.82844131088325   -0.78016356816345
C         8.38666316663513    6.11132454992974   -1.50940182230327
C         9.01522998953841    5.76714609500144   -2.86614490690746
H         8.33699788642829    5.16378242549155   -3.46380612470063
H         9.94979991533238    5.22756127295360   -2.73463159181390
H         9.22538638728236    6.68291242900634   -3.41368273626890
C         7.09334881970606    6.89183734810313   -1.77775214984808
H         7.32143215690891    7.79591413925320   -2.33779392732025
H         6.58931914856733    7.17973406111480   -0.85999774689887
H         6.40524117692074    6.28464232460970   -2.36041326292401
C         9.38443579055666    6.98682609315449   -0.73904312058406
H         9.71684759336011    7.80220339341866   -1.37785270276796
H        10.25810461488388    6.40576962885768   -0.45137813657621
H         8.94301690605211    7.42329181737605    0.15047149116029
C         7.27530046921743    5.67853623084548    1.48499126567559
H         6.40400330274760    5.33879200335753    2.05901770658856
H         7.06804862525299    6.66548780825586    1.07559450596600
C         8.51104262412975    5.68540905063479    2.39343233428314
H         8.67309396957920    4.65058335475827    2.69337824305980
H         9.38185625110878    6.00680913698543    1.82421995726303
C         8.34428307467423    6.58354242542289    3.61434716868354
H         7.39106137402201    6.33650601663315    4.08439387454878
H         8.23814834406610    7.60960341080271    3.26251554739891
C        10.99019631356332    7.12095630846920    4.17598279187054
H        11.31513192112913    6.71008916708241    3.20870563465822
C        10.82226540387935    8.63198702037092    3.95425752636343
H        11.78197923924230    9.08071718366871    3.67776824768793
H        10.15123038961146    8.76546491579302    3.10284928810599
C        10.25599365899988    9.40432129957862    5.14902932827459
H         9.90162578502368   10.37726953668574    4.79394137815699
H        11.05400855638780    9.61487397842177    5.85811540461896
C         9.10213738592841    8.70836349900216    5.87416539330623
H         8.19196366254209    8.82782405919010    5.28224937837953
H         8.93646235591944    9.22089759354809    6.82736548127800
C         9.30118130747297    7.20333105727059    6.11343133494989
H         8.37667897680791    6.86463623776698    6.60361313417514
C        10.42568606883598    6.91705057254275    7.12288948008681
H        10.26267557455769    7.51021988933381    8.02809008604084
H        10.35701897968975    5.86821124794365    7.43957555038229
C        11.84701345402673    7.19525362947254    6.62284115360067
H        12.55268864247719    6.66028606583720    7.26776362038669
H        12.06772293783163    8.25254056443065    6.74958098682048
C        12.12108190134388    6.79921715158019    5.16844587595556
H        12.32784911779111    5.72419595609571    5.12669269543953
H        13.04170724601076    7.29958614046242    4.85142904836124
C         5.88778446150656   -0.46810479328065    2.49749543473462
C         5.37144777805438   -1.55426665001552    3.20981754662317
H         5.56941486530530   -2.58659023701777    3.01800104931688
C         4.57314010041169   -1.00816275836068    4.19874907597204
C         3.79199285059298   -1.75428952083494    5.25038948803879
C         4.20195530665202   -3.23275989197497    5.21127532773238
H         3.94781793229580   -3.68364163592450    4.25567591135194
H         3.67640977067969   -3.77898835513318    5.99113657758738
H         5.27109077273154   -3.33741116990603    5.37920286282247
C         2.28687879239205   -1.67078115663297    4.95766787791523
H         2.07560598536941   -2.06702606932594    3.96675436237944
H         1.91636016410401   -0.65062857508384    4.99877543376967
H         1.73825772480234   -2.26013479026511    5.68884622933054
C         4.10666245657209   -1.22240000406847    6.65515120781760
H         5.18348102033246   -1.16529742483664    6.79860053526447
H         3.69757252472318   -1.90021098935511    7.40124833546338
H         3.68024934756521   -0.24105355242918    6.83143833913438
C         3.93860494593927    1.41042970367670    4.71247731553393
H         3.07470275298872    1.02355311593462    5.24759867146614
H         3.59041927815217    2.09640995608476    3.93301657279894
C         4.88642909646023    2.15871222951360    5.64538633503876
H         5.74766705064850    2.44064825059830    5.03465567146121
H         5.22987011824024    1.48581385165046    6.43045741703326
C         4.25331854822794    3.39457022297931    6.27574625748386
H         3.44563173263447    3.06476449189926    6.92888977520998
H         3.77544027542274    3.97699353317535    5.48138897515141
C         6.25715390134230    3.58977966279908    8.18945549714301
H         6.78272560997050    2.70683509127167    7.79911853663442
C         5.35310174389906    3.07702165099846    9.32007011899639
H         4.70086654635557    2.30999053614700    8.89598291899735
H         5.95497891771257    2.59631537676249   10.09921935080321
C         4.48223629242927    4.14937279981279    9.97723528055155
H         5.08342696028249    4.72477291825291   10.67841452539294
H         3.71154770741856    3.65007880202109   10.57388585980374
C         3.79200782371287    5.09782681716891    8.99413823703777
H         2.94282715580748    4.57851186934401    8.54479717513507
H         3.38874360302196    5.94527491871615    9.55845808048346
C         4.68300906236896    5.60217224255053    7.84847038633048
H         4.02642738013507    6.19723522555012    7.19761707893706
C         5.77629447412195    6.56294781970938    8.34347351717993
H         6.21356985517176    7.06762831793207    7.47515111357127
H         5.32333127878902    7.35121872209507    8.95315092717186
C         6.89502437757192    5.91549409418400    9.16890791343979
H         6.57303323590167    5.84499633357918   10.20583428264801
H         7.75950424166416    6.58822842901166    9.16687535693792
C         7.36101909157447    4.53281687947761    8.69668299825939
H         8.09501565820476    4.65935704010788    7.89278935908615
H         7.89647454602837    4.05812426798525    9.52575231617732
C         4.38577395785503    3.66069428663346   -0.15372948536754
C         4.78958675268498    2.88932239139404   -1.24120587360315
H         5.10842274525525    1.86982891120680   -1.07437809803667
C         4.77578289379615    3.42458556961879   -2.51315981239627
H         5.09930425661628    2.82120219397547   -3.34944486075024
C         4.33471671491383    4.72195696607584   -2.72143522808271
H         4.30871660849497    5.13256782150980   -3.72049022177664
C         3.91611102221899    5.48569921906553   -1.64291989098276
H         3.56526978350176    6.49576547930702   -1.80013909344150
C         3.94879333185345    4.96560382841581   -0.36412587467798
H         3.62379845259614    5.55704910092066    0.47939983381916
C         8.28168785038255    0.83818441427631    4.25203649387918
C         8.85894199585817   -0.08163525642281    3.38178024905625
H         9.16567917730703    0.24105396858346    2.39634490984406
C         9.03484275556343   -1.39259358570009    3.77814058932227
H         9.46622047093202   -2.10370005212738    3.08816470840853
C         8.66108841849609   -1.79361501930514    5.04996520685109
H         8.79077355314138   -2.82151930694228    5.35508412806924
C         8.14002740790595   -0.86438122773841    5.93567620004292
H         7.87647298652837   -1.16354915902757    6.94045521504731
C         7.95457873366966    0.44755464400984    5.54601789561681
H         7.55507942244973    1.17260482910645    6.23848331811400
B         9.58164882544882    6.47927710839653    4.68233273733910
B         5.33285408324826    4.32746846323162    7.07609365401119
Fe        6.31098895751089    2.30430719394900    2.12556029072751
N         6.94604824624011    0.96920449602017    1.03845115797577
N         7.27130663281140    3.43887757941390    0.75858165650547
N         7.46666108848897    4.71751957074388    0.43168698198852
N         9.84499669930137    4.88357042765085    4.92657144091772
H        10.56144020286874    4.58573705327666    4.27194535870032
H         9.03174643812670    4.28140322761685    4.76684499194130
H        10.19512471304363    4.75230472618378    5.87129009415525
N         5.44093470451367    0.67222584557809    3.04061565334559
N         4.62931560634627    0.33748228335040    4.04153416946452
N         6.29967006509884    4.88981679207503    5.89020274620297
H         5.72373368633430    5.42180294261336    5.24535120744657
H         6.73567108916850    4.11920224996213    5.38144106521937
H         7.01928876966326    5.49624314896168    6.27954912643545
S         4.35172833373496    2.94952567828358    1.44266158909936
S         7.98165356327407    2.47090876473557    3.68712447528547

