25
CSD_code = POMKAE | q = 0 | S = 0 | Stoichiometry = C10H9Cl2HgN3 | MND = 4
Hg        0.12144206291881   -0.20378212691287    5.51445478320659
Cl        1.38989455515762   -1.72542714235927    6.61382959051641
Cl       -1.79089488029971    0.31801155312439    4.34931336364311
N         0.21717400149912    1.98799430874352    6.56944769343191
N         0.19377309783764    3.10102412496836    4.48838265254196
N         1.54441481850988    1.19778817938296    4.13675346443807
C        -0.07627249152977    2.01118538294224    7.87189210204343
H         0.28435947681572    1.16319979906599    8.44066333034561
C        -0.77366381273511    3.03307548014260    8.47951923424444
H        -0.98306038817760    3.00118687511688    9.53580387984795
H        -0.21017683387651    3.89545762948395    4.00911718930573
C        -1.21026372013574    4.09147255032100    7.68822946016335
H        -1.78059653809611    4.90172334993097    8.11685208228956
C        -0.89444511885060    4.09401450916775    6.34944590790943
H        -1.20850163986293    4.90371725731565    5.70811579976105
C        -0.15853386769244    3.02308858815482    5.81482873397637
C         1.02422909122285    2.34512427882012    3.69557795315713
C         1.32805198378312    2.84666287815686    2.41862002907412
H         0.87070209460371    3.76365913822977    2.07853889574689
C         2.20596713933573    2.15593268750880    1.61588403061600
H         2.44884624727940    2.52239784956997    0.62989450996475
C         2.78119498411218    0.98501490142573    2.10076511986792
H         3.48706138315497    0.42324437095194    1.51183527723344
C         2.41168258186450    0.54962393686333    3.35519183214464
H         2.82691577314902   -0.35599036010113    3.77954308453007

