87
CSD_code = POMLAF | q = 0 | S = 0 | Stoichiometry = C42H30N8NiO6 | MND = 6
Ni        8.59118053665482    2.23269703487575    0.59072936576341
N         7.85839476390758    4.15065456990438   -0.21176411032209
N         6.79327213277508    4.70058470615465    0.24865065247122
N        12.17617200759794    7.24424218474928   -1.81790204793930
N         9.14338529234098    3.57657059444820    2.24924500603921
N        10.13167718202384    4.38966564281290    2.14409787874968
N         4.57213176136077    5.02086918057325    5.04374087561946
N         8.27526972376308    1.12794898717324   -1.38528746339919
N         9.07244116701547    0.33984556407536    1.77606908963703
C         5.83374553105221    4.06870312778365    0.89811356596831
C         5.85453267881265    2.64955069553208    1.18528395154835
C         4.65018531329466    2.07653781777031    1.71948784888210
H         4.65322300445142    1.00607669002162    1.86409754490754
C         3.59327860207025    2.83581569688407    2.08498403511287
H         2.72158902258941    2.37661459567224    2.52872134153129
C         3.60115134171254    4.25239538162305    1.93701069227862
C         2.54054143699000    5.04245445989513    2.40266148981274
H         1.70404697571497    4.55866028006373    2.88480690725855
C         2.57768467204528    6.40965557504487    2.27282794154547
H         1.76817540044538    7.01380497815235    2.65171668543947
C         3.67011895556461    7.01892898185781    1.65640556082628
H         3.69434049507120    8.09374835419555    1.55657336715680
C         4.71847569130830    6.26264011697832    1.18650415224506
H         5.56802651499746    6.72886320973261    0.71275317463920
C         4.71227912055311    4.86968558578141    1.32494023068876
C         8.80989851643077    4.99644527328890   -0.73081505883989
C         9.00502464803874    6.28725542072147   -0.20324879013210
H         8.29850997078207    6.65472548015585    0.52481545313302
C        10.09028065614089    7.03576797621208   -0.57882429581042
H        10.27412950615256    8.01382779791576   -0.16149792062081
C        10.99981245662726    6.51528769596978   -1.50097778259906
C        10.77319229128817    5.27232274013235   -2.09760432185737
H        11.47172680422274    4.91711160130351   -2.83945577537099
C         9.68613153658478    4.52488544495467   -1.72281456522784
H         9.50221311664421    3.55465245926422   -2.16027114739808
C        11.13342287281515    4.25919891716665    1.29485276338646
C        11.25338512022146    3.16656321861793    0.35215623072519
C        12.49737793615819    3.05429779081928   -0.35778790861065
H        12.60349837758379    2.19513715456618   -1.00383923548773
C        13.45854808210479    4.00141758107792   -0.27820119373699
H        14.36214837002025    3.90944118822500   -0.86356243025109
C        13.30487171018204    5.15857136282960    0.53788052151868
C        14.26215753780152    6.18302341789819    0.54255382930216
H        15.13126949214158    6.08587479562472   -0.09103046379847
C        14.08339636521537    7.30338729348390    1.31735026412098
H        14.81264933890411    8.09819462231428    1.30010264571104
C        12.95031799769833    7.41722191977677    2.12222112523123
H        12.81478435934015    8.29954227790734    2.72958262258158
C        12.00203746074951    6.42108649544711    2.13840295434755
H        11.12154617163020    6.50561873950214    2.75575045275457
C        12.15201427862996    5.27975854722444    1.34191744693337
C         8.12355448220893    3.95643201363736    3.08928280083839
C         7.77948973297416    5.31194521036234    3.25302998347364
H         8.42296290995217    6.05960606219265    2.81574990798908
C         6.63267129050556    5.66355398000941    3.91652221759618
H         6.33568949291563    6.69543516662940    4.02416794041881
C         5.80899509604605    4.66722257663646    4.44322137648144
C         6.18136167838748    3.32281682761876    4.36399459893423
H         5.54495597834158    2.57992255226266    4.81959496601523
C         7.32971573625438    2.97190667116191    3.70144898602016
H         7.62640911437421    1.93700365611228    3.61473737157323
C         7.29138601943262    1.44816159931858   -2.21722712342728
H         6.62512701126062    2.23811086775580   -1.89530127250106
C         7.10497835438625    0.82437395597826   -3.44079640876215
H         6.29099201652055    1.12148816809055   -4.08317274690107
C         7.98308299654653   -0.17930688226054   -3.81601330210687
H         7.86957950512937   -0.68768878179005   -4.76215198336330
C         9.01154796482560   -0.51367949388334   -2.94971787864158
H         9.72027898141283   -1.28745945261964   -3.20069429614412
C         9.11709521071901    0.16715753148465   -1.74730560912489
H         9.91037543279472   -0.05785819592476   -1.04743411824692
C        10.04522042887833    0.30711374885270    2.67893219112859
H        10.61982630079326    1.21601455546811    2.80252347120953
C        10.33056617015062   -0.81554787889989    3.44003988436531
H        11.13097254360646   -0.79229132093753    4.16279900735453
C         9.56818152466779   -1.95699334144987    3.25289055528598
H         9.76085388743269   -2.85073894243005    3.82790943116668
C         8.55117626907203   -1.92397666800611    2.31228779515142
H         7.93055393363667   -2.78834000359508    2.13420634587768
C         8.34134646258772   -0.75430861609090    1.59934984516350
H         7.55283538718167   -0.68475171530032    0.86241652503701
O         6.84612511812618    1.89816286390757    0.98775937690359
O        12.32162914663715    8.34851259863802   -1.32074621620308
O        12.99225018001368    6.72066889629085   -2.56004340815643
O        10.35064443380027    2.31663366616917    0.12952502391107
O         3.83753563817793    4.11950739526564    5.41635054213655
O         4.29686926150903    6.20505949405010    5.14244105920239

