33
CSD_code = POMMOV | q = 0 | S = 0 | Stoichiometry = C4H10N10O8Zn | MND = 6
Zn       -0.15479374885311    1.42747076448009    2.88521686062516
O         2.16220963954061    1.30601258190044    7.82012873689369
O        -2.03844686039577    1.03012203159305    3.93183899344776
H        -1.81783975817845    0.42006540658676    4.64519231858948
H        -2.45695773617466    1.79598854127094    4.33598949665060
N         0.55909081029963    5.09771770129401    4.32957882777543
N         0.37999112492707    2.89717763239612    4.04871605327760
O         2.07911903445655    3.44850937225898    7.57748227816454
N         1.06067429179517    4.44946771014720    5.39883977373706
H         1.45909464193817    4.92635206599743    6.19798111168063
N         1.87750489876081    2.30313163789577    7.19389928494297
O         0.55345564004543    0.08753566456119    4.32558963844617
H         0.88399653475665    0.65572742139661    5.07085141968929
H         1.30017716952802   -0.46306047903872    4.07556356470369
C         0.95705794889816    3.10959106442109    5.23572259126323
N         1.30411436492709    2.08973263679024    6.01129996847388
C         0.15791091933527    4.14461966916274    3.53411289002538
O        -2.47081595642422    1.30747356041839   -2.05025873773508
N        -0.86363205717489    5.09827915446535    1.43939094750625
N        -0.68721399145148    2.89762017873241    1.72095024818678
O        -2.38503476367221    3.44993398579741   -1.80828199805300
N        -1.36581733775785    4.45030097970533    0.37025850722906
H        -1.76389014389593    4.92729574457208   -0.42900373240410
N        -2.18467520135039    2.30442974367045   -1.42444444528469
C        -1.26386270221663    3.11035109540387    0.53384024630981
N        -1.61161819057613    2.09070285714202   -0.24172982217235
C        -0.46372522818956    4.14490254529710    2.23519466764501
O         1.73276209066709    1.03196602445364    1.84422190091716
H         1.51449448212888    0.43183640572476    1.12186271785457
H         2.16154868503279    1.79925670077569    1.45388776752130
O        -0.86172727292783    0.09014992932669    1.44497101108909
H        -1.19195782889138    0.65849680592489    0.69944580134668
H        -1.60819349891539   -0.46165713453022    1.69309111165446

