75
CSD_code = POMQEO | q = 0 | S = 0 | Stoichiometry = C36H28CdCl2N8 | MND = 6
C         9.59640415513587   14.16750224252947    8.87591473607519
H        10.62291983618030   14.42502990490512    8.64162129451907
C         9.28673890760582   13.02043581613771    9.60908340014840
H        10.07616821337613   12.37240928007358    9.95615977213170
C         7.96466475788778   12.73155095998773    9.86052534979048
H         7.65894213311952   11.85489867189430   10.41087124124784
C         6.97809107263153   13.59703825981843    9.37460348139077
C         5.57263130407810   13.34903625271958    9.58123301426718
C         3.90680851520561   12.06530247622712   10.46758318370962
C         3.51884462099763   10.88790093686855   11.30782996355404
H         3.68008203664422   11.16050821882999   12.35596592732269
H         4.19492991176262   10.06036157098067   11.08640470430497
C         2.06195784716366   10.48862073540822   11.09876872241781
H         1.94208252808911   10.03239634959752   10.11371469304498
H         1.77428098709482    9.74953823759174   11.84836055030427
C         1.16977361047661   11.72208689978605   11.19616013659747
H         1.35222437117917   12.22783409025348   12.14719290018055
H         0.11767692825442   11.43441508087871   11.16559033154032
C         1.47468518756752   12.66933923909182   10.04049031527811
H         1.12371916393042   12.22899547903022    9.10169342872381
H         0.95916419626301   13.62421223218215   10.15757308597057
C         2.94309585079755   12.92554040677436    9.89873647224571
C         4.61170733375896   14.21669529999533    9.02884630588720
C         5.02652809337511   15.36509524703174    8.26188844542714
C         4.10388900433182   16.22699900637857    7.66037218700922
H         3.05079350993399   16.02442369559857    7.78063798597907
C         4.57041457566213   17.29574204530552    6.92859828793006
H         3.89111815164669   17.97778601885573    6.44129560791600
C         5.94882623003739   17.47861573900219    6.81723894531081
H         6.35831645828784   18.30734823549560    6.25226678647234
C         6.39739181603428   15.62653942706973    8.08138415450754
C         7.38636940556705   14.72681805398518    8.64289748230961
C         8.65429305713536   16.45494385308888    3.03711773022503
H         7.79203603300831   15.79992205316527    3.08540622779879
C         9.37909794855677   16.61195674564902    1.85423051308054
H         9.08255245926201   16.07844018608623    0.96481676905221
C        10.47809601060863   17.44071661070389    1.85553231693062
H        11.08742819926414   17.59421455981612    0.97803688844158
C        10.82871610119004   18.09882687117134    3.03984418571650
C        11.97918371922168   18.96427306421026    3.12320498961847
C        13.77449537370890   19.95887708346974    2.12525705790912
C        14.61252603679030   20.13253174537557    0.89673233901593
H        15.23159675555412   19.23593119119635    0.79080235957997
H        13.95754430712955   20.17246586401007    0.02472261461145
C        15.50663158209416   21.36486285142516    0.98365449933743
H        14.89882109468644   22.26933953974317    0.90570238159491
H        16.21356695965386   21.36324554490993    0.15244608692536
C        16.25009998658515   21.36735192247608    2.31572590055508
H        16.78872525155671   20.42437421799978    2.43157207213431
H        16.98096387645705   22.17719592885617    2.34322669069596
C        15.25617589659896   21.53665044474604    3.45981637670355
H        14.85297534105345   22.55463900402267    3.44962338800332
H        15.73469254931370   21.39252397734701    4.42990355648665
C        14.10167231850879   20.58958387768162    3.34503930462977
C        12.32034284795363   19.57290683194023    4.34566327105426
C        11.52911888115124   19.32533316835916    5.52541059787572
C        11.86495203798915   19.86746705804906    6.77012570062839
H        12.74197267223099   20.49195812613225    6.84362514871988
C        11.07294170575367   19.57716498571362    7.85812916849474
H        11.30458194856114   19.96686386963033    8.83712991153073
C         9.96155960520621   18.75429832341108    7.67502328605861
H         9.31115315958347   18.50187702634116    8.50378223653997
C        10.39426141216578   18.49734772029696    5.44424603610583
C        10.04027840029980   17.87528038707503    4.18307568550459
N         8.67925878816037   14.99338915969530    8.41472515259401
N         6.83097429820288   16.67836797720780    7.37616553203173
N         5.19495180790310   12.28890131588473   10.30292666500159
N         3.30660657137596   13.98466332830501    9.20406448346817
N         8.97104781890142   17.06844191594669    4.15930037526950
N         9.62930787698623   18.23765694102950    6.51154462462867
N        12.72041527097590   19.17394940988153    2.03040152094076
N        13.37684018353897   20.38852167417321    4.42690532656368
Cd        8.85053709250045   15.96781506141677    6.25868051361253
Cl       11.17850353214829   15.46175691141753    6.04783122410127
Cl        7.46886251654560   14.20235556029611    5.42722639663768

