51
CSD_code = POMQOX | q = 0 | S = 0 | Stoichiometry = C26H18FeN2O2Se2 | MND = 6
Fe        6.97645112702405    3.48828592450304    0.09173797798345
Se        4.96034006312667    4.76135974051514    0.01760406582221
N         7.58630378668308    4.63275017140944    1.56563654791199
C         7.64045191658862    4.46495179913425   -1.21814544554071
C         8.19203930280687    5.80944595279096    1.52661677763092
C         8.55870823259155    6.50911988962318    2.67311271009968
C         8.29622235593133    5.97937466178204    3.91781785724872
C         7.64613662127070    4.74076568732342    3.99685471873537
C         7.30933917137474    4.11506090960414    2.78233102148559
C         7.29699110710737    4.08519872270260    5.21229243705094
C         4.26271382514803    4.46745446511580    1.79220674329377
C         3.46944793147732    3.35662835653171    2.05441910589167
C         3.03375721974027    3.10776617509537    3.34203831014751
C         3.37591312115412    3.96835697075979    4.37278474258768
C         4.13944230121233    5.09244400844260    4.10761573882904
C         4.58243894351203    5.34424087633645    2.82197301952053
O         8.06482359307075    5.01676148112918   -2.11994397822313
H         8.39219681411808    6.21498710716891    0.54574339744887
H         9.04966773769692    7.46372557099769    2.56960658753283
H         8.57651690246075    6.50200182893348    4.81972970698386
H         7.55748406183205    4.57051826004651    6.14107127950427
H         3.20053406046634    2.69416307404932    1.24371912706973
H         2.42212966656970    2.23966403702751    3.54265823439884
H         3.03686713708996    3.76992111643392    5.37887797110803
H         4.39209397927035    5.77662168521108    4.90514282680915
H         5.16961798789977    6.22665455140804    2.60651452602315
Se        8.99263182440126    2.21489729922802    0.01766328742616
C         9.69042099527534    2.50887891525359    1.79218330870306
C        10.48358706708597    3.61981299144095    2.05424392469531
C        10.91924931933832    3.86888846107862    3.34183272081619
C        10.57711884352139    3.00843924052040    4.37271133178629
C         9.81358386402939    1.88430929734445    4.10772429257646
C         9.37060753206409    1.63229822845989    2.82211057266905
H         8.78341629392496    0.74985552236192    2.60678810973462
H         9.56104180439766    1.20018575053726    4.90533817000825
H        10.91630145348983    3.20694787385961    5.37874486645629
H        11.53092688530370    4.73698738497929    3.54230514517200
H        10.75240226653389    4.28221359522154    1.24345868564360
C         6.64362783120942    2.86133710383147    2.78229641445080
N         6.36663443577956    2.34372892148721    1.56557302915696
C         6.31248675451866    2.51165663077926   -1.21819265287050
O         5.88848757412195    1.95976928470259   -2.12011454490385
C         5.76080204890162    1.16708050962264    1.52648523630774
C         5.39406484999994    0.46737531964482    2.67294568029752
C         5.65662354280517    0.99701699806256    3.91768070563700
C         6.30676931275727    2.23559525214761    3.99678647548745
C         6.65596895846751    2.89107119244984    5.21226106877955
H         6.39535939146542    2.40576343043713    6.14101712623879
H         5.37645992058783    0.47427234542464    4.81956149568208
H         4.90342190889724   -0.48738029549306    2.56938922835347
H         5.56087635389569    0.76147572254325    0.54559031434223

