92
CSD_code = POMSIU | q = 0 | S = 0 | Stoichiometry = C39H48FeP4 | MND = 6
Fe        5.57095256044344   19.29092263671837   -0.05372759394612
P         6.83426795144175   17.88781284669609    0.97774205440444
P         3.86195799229057   19.16955064001642    1.30112513727770
P         7.14746978789406   20.43397226436075   -1.05358123388713
P         4.70355188215776   18.02539099996636   -1.61139738766221
C         6.18306959899975   20.59681425240237    1.32720223194593
C         7.28544968332890   20.24673313746514    2.15022076355705
C         7.85849226108853   18.95781478589759    2.02868777795884
C         8.99149539687553   18.61518911422933    2.72474261561748
H         9.44106990267538   17.63942149327000    2.61196726297099
C         9.57296824511922   19.54507286050482    3.59771637897358
H        10.46958350115244   19.27155790909389    4.13631165166259
C         9.00182248070828   20.77414741542139    3.79039901558926
H         9.43615518347387   21.47437336685135    4.49119276977905
C         7.84554802375744   21.16010332707126    3.08066735541003
C         7.22693361116275   22.41449281115726    3.24723696415562
H         7.63687557238469   23.11423779324092    3.96231881903455
C         6.12558835066302   22.73091647279913    2.49923281579221
H         5.64187919885004   23.69067290601535    2.62686876291626
C         5.62445977660597   21.83934426496747    1.53996119949834
H         4.79025902242716   22.15649624182942    0.92973915018706
C         4.68098104549672   20.61244937228774   -1.08859193522796
C         4.08877513498450   21.40458559090407   -1.79745703538505
C         3.39193293752650   22.34193321261446   -2.59411605537771
C         4.05682520297681   23.05047658796178   -3.59952159689199
H         5.11430221058158   22.88144204846482   -3.75477124147293
C         3.37481166744845   23.95935950052941   -4.38288731619526
H         3.90040381900312   24.50045630401477   -5.15788747389460
C         2.02161294051830   24.18123499020190   -4.18082830328240
H         1.49045991194745   24.89326809484020   -4.79589200580591
C         1.35367009059851   23.48662344012383   -3.18457307981546
H         0.29846830823196   23.65902186861819   -3.02179842605954
C         2.02755275483441   22.57491469157506   -2.39724756230790
H         1.50505305072161   22.03532617323755   -1.61876934561549
C         8.93192050990858   20.18373692744005   -0.63618585556682
H         9.21416927230547   19.13412126990672   -0.68891326999492
H         9.11872672613418   20.54621124747427    0.37317909275845
H         9.54298373990867   20.75665532257237   -1.33487685652541
C         7.19988482326660   22.26441295840388   -0.89460345792634
H         7.89520440023492   22.65516559522842   -1.63840850248227
H         7.54896408480881   22.54466564922234    0.09665363252094
H         6.21166522923027   22.68397258214866   -1.06203892388382
C         7.32152886078552   20.39166245547803   -2.88701202797579
H         8.10687604956341   21.08403748723510   -3.19149728672383
H         6.37544115129680   20.70264832254541   -3.32431098270968
H         7.58076993871867   19.39716829223997   -3.23974792413972
C         5.14951633667316   18.06879166691197   -3.39599761250806
H         6.17648031106571   17.75314972554728   -3.56201768531399
H         5.00692406174989   19.07930342703511   -3.77118053241157
H         4.48428621889554   17.39129619502697   -3.93303493676062
C         2.90035205735578   18.22262446113011   -1.90866977615384
H         2.55446920487368   17.45822772644679   -2.60572477576955
H         2.74088888812035   19.21043177333280   -2.33811089095419
H         2.33921421624568   18.14647460619284   -0.98262815160004
C         4.76153605408661   16.19592336177088   -1.41309711376810
H         4.34550847001053   15.92361137889704   -0.44575842729443
H         5.80104227496427   15.87163638945308   -1.45445868894052
H         4.19725156706558   15.70342012169220   -2.20585037181773
C         4.04783515043080   19.61248676234931    3.07510745073146
H         4.18947212409524   20.68549184593197    3.17893825213364
H         4.91285300007945   19.10404736546302    3.49234024847437
H         3.15151760797485   19.30468160542828    3.61529207006549
C         3.01434531402100   17.55697789500374    1.61448057007412
H         2.08341812533988   17.72481432532437    2.15720701078524
H         3.67831472982043   16.94284185464554    2.22271870887071
H         2.80094233576557   17.02237906253321    0.69304037649061
C         2.42212730948977   20.25134342571036    0.95875117246026
H         1.64450739086557   20.07883683953542    1.70404976997882
H         2.03365611180075   20.08181646083493   -0.04071715934635
H         2.76505002288825   21.28226047130378    1.01855472134395
C         6.32801126766191   16.65560370943955    2.24349449831165
C         6.28618157659604   16.96476988696189    3.60013749013823
H         6.63579745606384   17.92809973723914    3.94512913969828
C         5.83324085475049   16.03664610970434    4.52110845407922
H         5.80908865845329   16.29330263424975    5.57070988978733
C         5.41912533406440   14.78315551608128    4.10442603088103
H         5.06373355507384   14.06068475844243    4.82447033831910
C         5.47930543773441   14.45526335479817    2.75946745006696
H         5.17807763813249   13.47150013192948    2.42795025359139
C         5.92920158225999   15.38251361680659    1.83896491654962
H         5.99717601321155   15.11143500411032    0.79556421349724
C         8.03096581003892   16.82968751278911    0.08902552053606
C         8.14124741309591   17.01971174262836   -1.28254769651071
H         7.49857278759637   17.76564303715109   -1.73555273210671
C         9.03242331959534   16.27757033148275   -2.03409969552410
H         9.10811379867664   16.43283241359707   -3.10146072293995
C         9.82855303856316   15.33007819529070   -1.41158724282974
H        10.52924342815916   14.74619725687417   -1.99045576579547
C         9.71768231243080   15.12443160087097   -0.04568134871826
H        10.33193764721272   14.37777572738169    0.43724678850663
C         8.82075882498317   15.86318571150434    0.70505012388444
H         8.72231951743057   15.67255573791076    1.76458309653133

