101
CSD_code = POMZID | q = 0 | S = 0 | Stoichiometry = C46H46N4O4Pd | MND = 4
Pd        2.07750370742841    3.91644282495790    5.95711393507979
O         3.08470546895259    2.13523546941802    5.64073500817017
O         3.70312603451984    3.08642515343500    3.74474344673550
N         3.09169111581068    4.18619696053303    7.67341083487843
N         4.24439987436580    5.18712321543632    9.23539022515535
C         3.68128629248430    5.31854914630422    8.00828448776289
C         3.24070071388639    3.31342100451499    8.71418879725270
C         3.98092933798955    3.92251258889688    9.69582683343340
C         4.46448263226707    3.46748171563846   11.02883199096552
H         5.53507815032867    3.67689711469993   11.11835074075163
H         4.32587010084802    2.38917170344436   11.10299776612844
C         3.71643067790089    4.16857814611458   12.16598180697264
H         4.04774982025585    3.78655234212890   13.12862233859237
H         2.64661144315664    4.00034513918846   12.07241479443119
H         3.89541015451794    5.24160697675886   12.14331106607493
C         2.56970153238373    1.98177281276907    8.72763190833827
H         3.30847747080071    1.18790428937096    8.86931439290071
H         2.08654757537372    1.84411384420201    7.75405819893348
C         1.51058267261342    1.92859841296133    9.82807884922794
H         0.97649522624006    0.98320498878456    9.78738052733584
H         0.80582551072184    2.74095955662736    9.67306247068433
H         1.96070715600024    2.02916865441740   10.81282491551809
C         3.71888917299875    6.57297897040644    7.25870983113732
C         3.21693377147025    7.74008098056432    7.86421706470275
C         2.56669090576126    7.73302668543598    9.12575234539615
H         2.40797816543957    6.79208537410750    9.63005822365176
C         2.09079202403624    8.88308606567311    9.67989116294653
H         1.58845326411344    8.85695868807570   10.63589611082713
C         2.23067434908461   10.11559549553323    9.01099966944043
H         1.85072499461423   11.01497634469331    9.47310852280323
C         2.81872534984976   10.16052257363650    7.78485935844677
H         2.91134328278523   11.09516402789541    7.24997423964015
C         3.31842732100170    8.98476595359703    7.16857173800149
C         3.90787732311492    9.01973861172361    5.90877472192435
H         3.99643654380516    9.96762737400155    5.39557665980173
C         4.39144180202060    7.86801190938091    5.29690708629390
C         5.02896461853297    7.91512615643051    4.03091613731167
H         5.10921575134300    8.87310822746457    3.53598235347824
C         5.53510940136645    6.78792451654608    3.46070420205590
H         6.02743069222232    6.83380176637719    2.50005473679282
C         5.42640730487077    5.54705341500641    4.12074730473171
H         5.82461591286169    4.66073449771482    3.65306674769312
C         4.81754481788405    5.45563062036802    5.33789875226541
H         4.78662569812506    4.50012827391826    5.85000315405297
C         4.28226755574246    6.61058131601238    5.97084824611495
C         3.71057561778756    2.14691415922702    4.53867087861329
C         4.52956472688640    0.88878939939505    4.24235941860158
H         4.69794582672948    0.79757196114462    3.17332405786261
H         4.01445689147132    0.01101907688576    4.62265878366798
H         5.48995997024001    0.97627375866126    4.74728941844072
H         4.76376821235673    5.89892138727460    9.72275943428414
O         1.06979732890956    5.69721948837911    6.27337624290951
O         0.45173958198854    4.74626897583414    8.16967413578637
N         1.06277079868737    3.64686678412167    4.24073236903852
N        -0.08986132420203    2.64582432175279    2.67873976287787
C         0.47329833368489    2.51448181081515    3.90583183210290
C         0.91372457725500    4.51959300266070    3.19991053125749
C         0.17350669839569    3.91045776553785    2.21828758618313
C        -0.31024032826249    4.36543700675991    0.88532498783328
H        -1.38082685874411    4.15590074302895    0.79595858593159
H        -0.17175446792304    5.44376396854770    0.81115434637172
C         0.43765097304531    3.66450541163530   -0.25203496748580
H         0.10612448256771    4.04662580034495   -1.21456983396800
H         1.50747809924804    3.83278871484902   -0.15866820549327
H         0.25873593540265    2.59146520137294   -0.22947002504007
C         1.58483249279542    5.85117308987978    3.18651904092662
H         0.84615316581551    6.64513193372553    3.04484275446148
H         2.06796653901233    5.98870217263826    4.16013330509448
C         2.64400090730149    5.90426006240389    2.08611772027499
H         3.17827314367596    6.84954299856763    2.12692955666289
H         3.34860064310570    5.09174757549878    2.24106112389238
H         2.19386549417704    5.80387446383687    1.10135675338233
C         0.43601182231786    1.26010195895302    4.65547777907796
C         0.93832216404744    0.09310362704925    4.05010241541634
C         1.58845377850079    0.10024082013998    2.78850656878221
H         1.74696167853419    1.04121811480340    2.28419837712293
C         2.06440611547536   -1.04977278820156    2.23433608618200
H         2.56658649079382   -1.02363124146278    1.27824532005730
C         1.92479907621246   -2.28226691357674    2.90332270354416
H         2.30469042227859   -3.18163186298184    2.44113250427530
C         1.33707116071749   -2.32721506791914    4.12961521931410
H         1.24475847001640   -3.26184620336265    4.66456904715287
C         0.83718326485493   -1.15152435687634    4.74588928758370
C         0.24772776320498   -1.18650112602261    6.00568537535333
H         0.15950504608178   -2.13434136751934    6.51902886325273
C        -0.23632161094746   -0.03486685181232    6.61735845545287
C        -0.87412383446941   -0.08200560215149    7.88320099386186
H        -0.95440305903294   -1.03997198118986    8.37815908461764
C        -1.38066902417601    1.04513226080025    8.45319501195157
H        -1.87334368005115    0.99918541761379    9.41366015962260
C        -1.27208690832195    2.28598488531172    7.79310773444033
H        -1.67047755792960    3.17227929850506    8.26067609280456
C        -0.66303652053155    2.37742877474803    6.57605011469276
H        -0.63220215862045    3.33288641229690    6.06385057869516
C        -0.12742030411740    1.22252362914452    5.94330331630089
C         0.44431662853705    5.68569484984566    7.37568707507864
C        -0.37469226471147    6.94383114491402    7.67189467392645
H        -0.54565953846709    7.03359619131200    8.74079746807662
H         0.14204383216844    7.82186953426961    7.29410207425582
H        -1.33393895541437    6.85772764323087    7.16424403873541
H        -0.60925245024417    1.93397986019137    2.19146028106912

