39
CSD_code = PONCEA | q = 0 | S = 0 | Stoichiometry = C13H22I2NRh | MND = 8
Rh       -0.36601561944009    3.19080770170579    6.29969562141113
I        -0.20748234264749    1.62487861215198    4.21870590500188
I        -2.72574954047060    4.13023171315014    5.71498315382912
N         0.83241034096578    5.23198867255394    5.08808257757480
C         1.19647662490929    3.93317944044979    7.59442100541230
C         1.43898017378275    2.53863891506696    7.35775038943339
C         0.29774377371081    1.82100321165069    7.82492925229982
C        -0.62877080207858    2.77469836068125    8.39822124448600
C        -0.05687335946489    4.07686384637931    8.28176348912520
C         2.70482472938096    1.90825485739805    6.87049627857455
C         0.16214520574782    0.33630041319773    7.88726787958909
C        -1.87518568915291    2.42967004187605    9.14278625140065
C        -0.62422526490903    5.30381761480064    8.92239066628535
C         2.13247294728245    5.03816912822286    7.20381492024192
C         2.17662511581631    5.19860007110996    5.67553165568973
C         0.92675172683404    5.08961483721541    3.63819275048135
C         0.16745437009825    6.49817678415250    5.38157698753897
H         2.55851316752720    1.39668958588053    5.91875192806471
H         3.04041718491681    1.16705525848425    7.59687184561421
H         3.48997652886548    2.64979967167332    6.74498517277621
H         0.77310880690402   -0.14512747253750    7.12695682976355
H        -0.87252054349332    0.02657018610464    7.74702139998255
H         0.48894071077908   -0.01047106637850    8.87024107054626
H        -1.61494397056832    2.16433753473081   10.16986832144228
H        -2.38217279763980    1.57782536470565    8.69230329076968
H        -2.56517246975207    3.27021091560797    9.16527464812171
H         0.05558551597289    6.14870729679311    8.83998965914479
H        -0.79819978598332    5.10766485148341    9.98115230653932
H        -1.57811939033597    5.58405145837360    8.47447777882008
H         3.14028599893877    4.80654113160207    7.56043556134492
H         1.82461456967972    5.97459735739917    7.67106867978814
H         2.74066195117821    6.10960982013187    5.41422916062440
H         2.70046803873179    4.34144610357944    5.24357637338127
H        -0.07653669066829    5.05728160126892    3.21628563813020
H         1.43536755226746    4.16215450653771    3.38227775033892
H         1.47410446353377    5.92844167147255    3.18770923048384
H         0.02815085564089    6.62217848810257    6.45249483882231
H        -0.81282742305191    6.50749364059309    4.90925095222005
H         0.74901533625754    7.34794787247397    4.99696753495036

