31
CSD_code = PONCOK | q = 0 | S = 0 | Stoichiometry = C14H14Cl2Ti | MND = 12
Ti       -2.03380205585789   -8.91030122424458   -6.75638197880473
Cl       -1.53986410736901  -10.37010826401140   -5.16221108774255
Cl       -4.07634927580095   -8.62157998597050   -5.94235855891591
C        -1.32385772341365   -6.84110992221967   -7.51193777863249
C        -0.14712837513728   -7.60484369572504   -7.26955575515247
C        -0.08865759397770   -7.87635077890318   -5.88770915420678
C        -1.20759404101704   -7.27410395616920   -5.26812433280907
C        -1.95925306473067   -6.62322756653802   -6.26961914262882
C        -2.07365078172100   -8.82558385441126   -9.10670953603849
C        -1.01363891770747   -9.67753045299753   -8.68588890043095
C        -1.58993131944705  -10.80318261564654   -8.05690226799884
C        -2.99128567574222  -10.63722512022054   -8.05062166042226
C        -3.28686422658752   -9.41714724441960   -8.70099100272309
C        -1.81132238507724   -6.35064448760225   -8.84555323692781
C        -1.91888193214845   -7.52811382528737   -9.84609049783979
C         0.84695189104338   -8.04306323427837   -8.30589651468490
C         0.45674860410500   -9.43157753893553   -8.87108527441214
H         0.72146160959178   -8.37925461054267   -5.37477335583502
H        -1.40193335513682   -7.23917158421155   -4.20324797130577
H        -2.82642999773661   -5.99585408201952   -6.10402176370366
H        -1.05415915795907  -11.67949063470314   -7.71342711778510
H        -3.71600792778417  -11.35941785082792   -7.69543285660829
H        -4.27893561674033   -9.04891323490971   -8.93018175670363
H        -1.14067671396054   -5.58044401789044   -9.24016945996206
H        -2.79620465428625   -5.89704360054006   -8.70569593719865
H        -2.77678306439399   -7.37271131698040  -10.50410671193115
H        -1.02444067819883   -7.57710592248802  -10.47058641880523
H         1.84408417787102   -8.09515760585562   -7.86290144054127
H         0.87712617503504   -7.30270334274496   -9.10809365514302
H         0.72690935374349   -9.49699894280741   -9.93005936558502
H         1.00527083054362  -10.21213948589765   -8.33706550852165

