44
CSD_code = PONDOL | q = 1 | S = 0 | Stoichiometry = C18H21N2O2Zr(1+) | MND = 13
Zr        7.42754292015614    0.36232665987412   11.02822928484425
N         6.88158400712453    0.74147634492155   13.40967189391397
N         7.70758365233704    1.46898616861368   14.17931103934287
O         8.29019303972678    2.09277556096926   11.62343632631725
O         8.41292856756005    0.89676720347371    9.28827053876804
C         5.97436575021872    0.24306855882853   14.24926951887262
C         6.22174802585622    0.65766250513573   15.55914220382445
C         7.34505831880058    1.44942286355228   15.47103242377734
C         8.86280757518911    4.40127098624589   11.79390363373697
C         8.68223297693457    3.14514734809715   10.98560026488521
C         8.98437991204360    3.14787720517801    9.63446608227382
C         8.88365813713746    1.98428692165371    8.84442450409721
C         9.34662581971948    2.04021868311309    7.41870320250136
C         9.57147311733664   -0.89618842376850   11.01932940359908
C         8.65431004441160   -1.65881656719418   10.25680127106614
C         7.65045916693416   -2.13512747197826   11.12921647324957
C         7.94697273513985   -1.67472349324461   12.42865059677672
C         9.12926568644259   -0.89607283305090   12.36065445101725
C         5.13033167002174    1.26146990454401   11.20778767699408
C         5.04117902421620   -0.14119962409720   11.00760299600779
C         5.47084902189291   -0.41670754662333    9.68628696792305
C         5.81041073208783    0.80690145951638    9.07449653048000
C         5.62419440306047    1.84045397675277   10.01700878989333
H         8.47168191178039    1.97907841316570   13.74908162542197
H         5.17955169224246   -0.39116644395139   13.90349115751916
H         5.66019836776392    0.41403497787514   16.43591076132226
H         7.88833234384557    1.97815571891930   16.22759302852423
H         8.84390660130462    5.28263275624960   11.16176816193166
H         9.82607268837744    4.36910143631587   12.30394568445864
H         8.08139889470026    4.47431851457792   12.54895497925897
H         9.35174587331923    4.05187234052545    9.17854664377698
H        10.37986227576654    2.37611431946291    7.36767333108929
H         8.74195444293550    2.75532864267822    6.86373675388504
H         9.25813801114881    1.05903424926561    6.95884464186712
H        10.51063427159235   -0.48986119889409   10.66047829734450
H         8.77446884786412   -1.93367376634679    9.21560871735607
H         6.89608198881144   -2.87164161207124   10.88196744749660
H         7.45849324167295   -2.00216415336120   13.33722024910686
H         9.69161826835707   -0.52237450636753   13.20874667589754
H         4.73374788307716    1.81220211567812   12.05224430265720
H         4.54376162986421   -0.85018227734852   11.65860041985080
H         5.38141501782096   -1.36706870949875    9.17391695384126
H         6.06171571763189    0.93782789051106    8.02994142362446
H         5.70356572577477    2.90275490209443    9.81663266960513

