59
CSD_code = PONLUB | q = 1 | S = 0 | Stoichiometry = C20H29N4O5Zn(1+) | MND = 6
Zn       12.13360315429738    2.50189969783361    5.26617391586473
N        11.68422781693864    2.13862062997427    3.30349638350999
N        12.47475333065539    0.43772115658954    5.25047700783576
N        10.43407212088228    2.01198861112216    6.30541768992531
N        13.59632255529704    4.32259179139315    4.70467730210840
O        13.30506513180810    2.67193921976484    7.11392852420153
H        13.12908438641717    3.45248344457594    7.65544821617619
O        12.44133250008554    1.08391700287132    8.55746791609937
O        12.45336132318397    4.45510046586173    5.22097771148820
O        13.95070666902300    3.16090821351716    4.46481933149120
O        14.27397915583071    5.26809930101611    4.46741527840998
C        11.07257968447025    2.93506811561611    2.41988471086458
C        11.23202258707443    2.73688125294487    1.05327076649887
H        10.73868186823144    3.39347593375108    0.35535521931230
C        12.03065704993120    1.69919891163361    0.60512522154049
H        12.17737820525859    1.53655877160937   -0.45105347326171
C        12.63114808408291    0.86432939999229    1.53401035707835
H        13.24915073196253    0.03778687584289    1.22261842396736
C        12.43636486048591    1.11839074004443    2.88254399340496
C        13.08189324727067    0.25307012906864    3.93136766094700
H        13.02955131787243   -0.79914487484164    3.61772100819490
H        14.13320191808652    0.54241986937636    3.99532574875542
C        11.08595474301640   -0.04459164318872    5.23449629602024
H        11.03675366909693   -1.12667058203961    5.39918696051388
H        10.64562537660444    0.16280183128842    4.25540142559394
C        10.26200065846353    0.68665118262372    6.25563479036395
C         9.35075243306175    0.03049703918060    7.06201276909921
H         9.24120995506413   -1.04019210590460    7.00007444143520
C         8.58661116533870    0.77530282937909    7.94961488126736
H         7.87407334922240    0.29175000795121    8.59944216185499
C         8.75490691876758    2.14456263217999    7.97860498900151
H         8.17158564193497    2.76039812204452    8.64445610856896
C         9.69215962988355    2.74419198228196    7.13737762079839
C        13.20503108817524   -0.30789157651895    6.29603857229228
H        13.68111929596618   -1.18490987833837    5.84342845610789
H        12.46698333253577   -0.65607255705540    7.02022635499522
C        14.26216280114589    0.43345107751993    7.13190244885625
C        13.60454256832329    1.56656431145849    7.95324698133728
H        14.32124263286032    1.90457267413212    8.72179359784358
C        10.20446008601493    4.01474131536043    2.96531391165461
H         9.42933094400959    3.58201471212761    3.59671839046268
H         9.73823031197245    4.58029743298408    2.16487981450868
H        10.78766254258059    4.69521516121554    3.58383314473299
C         9.84889738427648    4.22468948612051    7.13640766587160
H        10.72920514987634    4.53441026190743    6.58327830034080
H         9.89678046664699    4.60739646559867    8.15396708696993
H         8.97564550573981    4.67665375214980    6.66605208439710
C        14.80512416786761   -0.59037168077429    8.14086460949070
H        15.23768100433026   -1.43934971945702    7.61950704762008
H        14.01255436798567   -0.94750479940303    8.79306899089969
H        15.58187967349148   -0.14205169140695    8.75410924603760
C        15.42922428283118    0.97821982342714    6.31099063784326
H        15.11464575895688    1.74357220107198    5.61025872597426
H        15.90450532855443    0.16611618439177    5.76705381201527
H        16.17202003448784    1.41715205490485    6.97255296412947
C        12.02061887657365    1.78871556509228    9.71094145476552
H        12.82135469802592    1.83197062060591   10.45538908657750
H        11.18099680280344    1.22840586083291   10.11555658156713
H        11.69162965436796    2.80498698669963    9.47124867377861

