97
CSD_code = PONYEY | q = 0 | S = 0 | Stoichiometry = C48H36CdCl2N10 | MND = 6
C        19.55386219341238    8.86659356234278   20.21419734194404
C        19.19514840116046    7.64584329340220   19.59777976440474
C        18.93315484428396    6.52095850766550   20.38108796453790
H        19.02145996379570    6.58558634741870   21.45554826409186
C        18.56751186655547    5.33674476251526   19.77440870566794
H        18.36613420720844    4.46369202452252   20.37831794305886
C        18.45100534293903    5.25344196795235   18.38944655852348
C        18.71922819730444    6.37722214371465   17.61583850641743
H        18.63315933980699    6.31441550003015   16.54143321699969
C        19.09237413911779    7.56720319171375   18.20853296346040
H        19.30115456049655    8.44001121683019   17.60808943071394
C        18.04257206878638    3.95787023424329   17.74504838747820
H        17.69953004832685    4.11389436466740   16.71367911329998
H        18.89808906950309    3.27656678311794   17.71774264637554
C        16.95412463688963    1.97450797793252   18.84339809460040
C        17.92974350649024    0.99373420594812   18.92155853820048
H        18.95770882629157    1.18536213000581   18.65182666895961
C        17.52803155280588   -0.25642564278662   19.34906962782229
H        18.25761890849223   -1.04963601104126   19.41429699069718
C        16.20075451314065   -0.52679753724237   19.68750244944577
H        15.93586532737288   -1.52518789224998   20.00099454948765
C        15.22431067036162    0.44509733567217   19.62125854074770
H        14.19279637582197    0.24154143855500   19.86565251662721
C        15.61380455551432    1.70978095525235   19.19594337138995
C        15.71173203047380    3.76381789643159   18.58041332566409
C        15.31267709343251    5.15631865092884   18.20197990893646
H        15.78014114118268    5.88852659871049   18.88760123947206
H        15.69259116807213    5.32276189639764   17.19183207338260
C         7.80341224353721   10.34976669974684   20.65335049381954
C         8.58309641269132    9.19598097955150   20.90346564760011
C         8.15813475470054    8.23714418432559   21.82085006336593
H         7.23004190935530    8.37905272522393   22.35285805574848
C         8.92819908052463    7.11016574710300   22.03491337364329
H         8.60153916956705    6.37799092998222   22.75825622303379
C        10.11731773806659    6.91623020843126   21.34249471551025
C        10.52948044598458    7.87976794278868   20.42768345427014
H        11.45396440917087    7.74332596076029   19.88643138523367
C         9.77954272702969    9.01607190388061   20.20964087995858
H        10.10803727800707    9.76893724685763   19.50861127676887
C        10.95819865946488    5.68284460921748   21.57581058071932
H        11.98734591090864    5.97140069665354   21.80670156962848
H        10.56160300780002    5.12371326184985   22.42907030780887
C         9.96882918723504    3.90456048728917   20.11669175160641
C         8.72029403879411    3.65497111240154   20.66552663729146
H         8.34963224437006    4.20222825528434   21.51891037959083
C         7.96435680369885    2.66403448344326   20.06873404407472
H         6.98537046738011    2.44171342583132   20.46639065054992
C         8.43222680687535    1.93961225499740   18.96937323536168
H         7.80252420164584    1.17166393525434   18.54762266159904
C         9.67491543112526    2.17549308708947   18.41998703415660
H        10.06782614436996    1.60922287142103   17.58963868656176
C        10.44323702005199    3.17384975855245   19.00703400729607
C        11.97239307285263    4.58848430893082   19.52342636292568
C        13.27232797620617    5.32383984170874   19.49484922170534
H        13.14019248609770    6.36771954812075   19.83626885030036
H        13.94865717526629    4.81913480353240   20.19166545051257
C         5.86311035882009    7.56984390047352   19.50118398555353
C         7.01268078731372    7.57223101894544   18.67733153213803
C         7.31639800741454    8.68290441200739   17.88945146112714
H         6.65201818670711    9.53357468911437   17.88168369347186
C         8.47102959547894    8.68474416494907   17.13308457146369
H         8.70593157348464    9.54376949531447   16.52146382056839
C         9.33515417734217    7.59452745662896   17.15231885166169
C        10.60719007829426    7.62906813201956   16.33441685996484
H        10.42480090456338    8.17511578090244   15.40097528014864
H        11.38338860361765    8.17069728876371   16.88402843022637
C         9.01756611102960    6.48702772231309   17.92940301797067
H         9.66523117649735    5.62365355745902   17.93936890061743
C         7.86296332167687    6.46765712324902   18.68488579712423
H         7.61951377405610    5.60110643336820   19.28109718322623
C        10.33236987466127    5.41054649278025   15.27526329546764
C         9.11304478287420    5.51660021333433   14.62399638856169
H         8.54315349316563    6.43351690811318   14.62246472515260
C         8.65538494037138    4.38444294182526   13.97945855226198
H         7.71019462989222    4.42336245099653   13.45927050292078
C         9.37793088962103    3.18799667559448   13.98556914531281
H         8.96894931009053    2.33200024083743   13.47125799597952
C        10.59165937295686    3.07558957404278   14.62988626440367
H        11.15647726024022    2.15495553147343   14.65223548483197
C        11.06788359230141    4.21011631517238   15.27832225709148
C        12.18954406455876    5.63489830198128   16.43685382868903
C        13.31489980408665    6.22530726435173   17.23642264974204
H        14.09523943568898    6.50650475429415   16.52093891382919
H        12.98068480835927    7.14349433381016   17.74953215823029
N        19.83323503270735    9.85839044076156   20.71668732484190
N        16.98415856780628    3.30062264171837   18.46652862314892
N        14.87291997975016    2.86055807650018   19.03037389544440
N         7.18386388141647   11.28569403312583   20.42420081874478
N        10.97255148352788    4.80117174946215   20.43160815535435
N        11.69274122561581    3.63550417951344   18.68126795320431
N         4.95618218908147    7.56256051635505   20.20149608934993
N        11.07599074580320    6.30788906535901   16.01900097647213
N        12.21702420719917    4.40694502196762   15.99827345587532
N        13.86784694995197    5.26973588467787   18.17661009822935
Cl       12.47903721395114    0.66315604907024   16.73771664463360
Cl       15.34333890811457    3.18165025568918   15.76097025553887
Cd       13.36173534805972    2.78660173879556   17.13066445836515

