80
CSD_code = POPBAX | q = 0 | S = 0 | Stoichiometry = C22H49N4Si4V | MND = 4
V        10.89315221247906    1.39526319897611    4.94861175254808
Si       13.83550240405811    1.70711745487442    4.60264918976484
Si       12.29454789890582    4.26177395860810    4.09701928567044
Si       10.89635047817837   -1.12446093544687    6.28742513746167
Si       11.15040473848163    1.16488200504006    8.26339978954914
N         9.30725179881331    2.09863210144310    5.48600711740418
N        12.32800398431610    2.57645356206701    4.50179266191165
N        10.39700253944509    0.08814228104412    3.84206215754227
N        11.19420977832063    0.53441665887988    6.65404541772345
C         8.09739252617378    1.51871658282530    5.31099415356890
C         6.93092450786622    2.00765323876079    5.85672747420525
C         6.96236141773834    3.15249560009445    6.64450735325086
C         8.21033269325615    3.73785993378772    6.85846749324104
C         9.32994949844785    3.19355716331850    6.27973238380123
C        10.08521507493819    0.31061038074913    2.43672575364743
C        11.22159872778055   -0.17330996830781    1.51737708257850
C         9.94802368803781    1.82762671805605    2.22569143463543
C         8.74303227787100   -0.32082782507956    2.01304072027226
C        10.49113775585292   -1.15779482786879    4.40209625547031
C        10.39134664638352   -2.35964665193499    3.81269820845145
C         9.36589564910326   -1.84447009912786    7.19199853353860
C        12.39368975939568   -2.26074714476127    6.65910770961914
C        12.12737126597475    0.03314683258685    9.45972971204947
C        11.97030905433377    2.89651804641883    8.29475981472323
C         9.36946033818633    1.26510573999707    8.99219506345519
C        13.79631274237199   -0.07035824243158    3.87601393918511
C        14.48816089887413    1.53711387299603    6.39678802797563
C        15.27674405376212    2.53311369035673    3.64436744327838
C        13.26691923314658    5.34509417808848    5.34435410274778
C        13.00902758195084    4.60600042858758    2.34509134112056
C        10.51121755499419    4.97806018860527    4.02744720463186
H         8.08827400206082    0.60760343839433    4.72543507585389
H         6.00075154070090    1.49179458478731    5.66996007339788
H         6.06521926125896    3.56303463911903    7.07691881476003
H         8.30372398058203    4.61968635609446    7.47372928276789
H        10.30536049891706    3.63669049156093    6.41470117723891
H        10.28273494345471    5.56038031593831    4.91365666790973
H        10.41830795829728    5.64672800590457    3.17776439953450
H         9.74659188487098    4.21508245051416    3.92446895181312
H        14.27006277445537    4.96091055853750    5.49470470937918
H        13.35452762785218    6.36404558686948    4.98047314664173
H        12.78442993523370    5.38535699923658    6.31636573091852
H        12.84716908005053    3.77161828893892    1.66925396829169
H        12.54662817378907    5.48191380316466    1.90045474342955
H        14.07574184002245    4.79148865419518    2.38402058138831
H        16.18595544692680    1.95847045570810    3.78803867812858
H        15.08754393345028    2.58094480417021    2.57852982722385
H        15.46984766450447    3.54028469553270    3.99279933074336
H        13.78010920180615    0.99668246860897    7.01552015689681
H        15.42827039586290    0.99307794380263    6.40569421816224
H        14.66792791524484    2.50325950519477    6.85624815498609
H        12.84722065854848   -0.57089955320451    4.03573936830626
H        14.01356982944510   -0.07519474262002    2.81201709126679
H        14.56538594624553   -0.66805158910231    4.35648945661936
H        11.65425926495761   -0.93835816670349    9.55294916586617
H        13.14717032305550   -0.12899610891870    9.12821252392500
H        12.16922657206455    0.47404611629113   10.45058530001341
H         9.18035102902292    2.22206826693552    9.46867737778985
H         8.61366841876623    1.12622976454268    8.22570329910610
H         9.21730092431091    0.49495459724299    9.74167343085199
H        12.31220162135345    3.17708542481678    7.30260312407967
H        11.28687070144142    3.65874382862653    8.65613405113958
H        12.83268498177109    2.90037698029826    8.95360259693813
H        10.51098782158139   -3.24526235637074    4.41257817360766
H        10.20522189517430   -2.54546504499206    2.76833597825772
H        10.84237522198878    2.33254279632362    2.59242083094832
H         9.83364645985549    2.04108998262342    1.16386748620897
H         9.06842284591529    2.21212513424579    2.74636416363600
H        11.49110994762743   -1.20476083211764    1.72185447166186
H        10.91665639365808   -0.09279076229440    0.47581107634094
H        12.09824168263721    0.45109148284019    1.67693795240042
H         7.93591128535123    0.04122650103593    2.64741136878140
H         8.52234913898091   -0.03275211869270    0.98713673126036
H         8.75570358295255   -1.40305877879256    2.06803204058915
H         9.53540842534427   -1.85881789451625    8.26240886796099
H         8.47361517603269   -1.25360327170174    7.00813315815653
H         9.16210996335674   -2.86180822576032    6.87530672686280
H        12.33741029103078   -3.19172735611359    6.10516793255167
H        13.33045119926568   -1.77694199277808    6.40338938347050
H        12.42664155944752   -2.50838424903584    7.71399546682260

