39
CSD_code = POPCEF | q = 0 | S = 0 | Stoichiometry = C17H12N4NiO4S | MND = 4
Ni        3.78012121165974    4.71791655567672    7.13425450902215
S         2.22440540719945    0.20125902320105    9.47770261708498
O         3.51795731999852    3.86718738024713    8.77557205727360
N         4.38062558913023    6.34636873553700    7.99876295637575
C         5.44278133703590    7.01240639431501    7.54253463058016
H         5.91826509331700    6.61815878203132    6.65376044226245
O         4.01366321258938    5.47658750622911    5.49109388403836
N         2.90086733012913    2.19524291447162    7.36794748967961
C         5.92216577540728    8.16037132837955    8.14991866283577
H         6.78653327466757    8.66193606443884    7.74457808925361
N         3.20543794388727    3.12227021187308    6.43260230791843
O         2.83801438801929    2.42336098669969    0.22815356048174
C         5.27621814632930    8.64575992999053    9.27537572316556
H         5.62489092856861    9.53843676689305    9.77224810603458
O         3.49200892752516    4.32134081182047   -0.54324689814936
N         3.24047794937028    3.56291853854493    0.37519723566808
C         4.17074918435861    7.95606161913937    9.74644442341991
H         3.63315863511412    8.29528577322968   10.61752846742079
C         3.75695050173761    6.81368209234112    9.08256110738836
H         2.90373744290866    6.24849959183387    9.43559322237292
C         2.17631869720787   -0.04865163784800   11.17410259889988
H         1.84377620087277   -0.99180290903099   11.56042558540619
C         2.58999210109841    1.04291577898019   11.87620797746618
H         2.63127284783824    1.08186320374974   12.94990655680571
C         2.95615145533592    2.11041822328164   11.03927694276401
H         3.31403300400742    3.06437317431429   11.38177479380121
C         2.81353131307467    1.80964165012196    9.70928582290180
C         3.09286565318329    2.66484860377848    8.57754350393501
C         3.06801253507375    2.79158946687133    5.18274901678480
H         2.71712355753654    1.78444954040738    4.97444804586465
C         3.34426814018478    3.65668941086409    4.08497309321462
C         3.81311248034669    4.99281938300787    4.31779345046818
C         4.07184371592997    5.81029706985336    3.18613923130978
H         4.42018691973160    6.81508317128070    3.36879458078733
C         3.88644203675184    5.35003168723242    1.91498115483344
H         4.08350473542536    5.97304102226455    1.05604207807507
C         3.42951845168681    4.03900442951597    1.70577950950721
C         3.16257962187236    3.20821085350905    2.77754564499289
H         2.81133693388821    2.20442687095053    2.58934781805401

