98
CSD_code = POPFIL | q = 0 | S = 0 | Stoichiometry = C30H59Cl2N4P2Rh | MND = 6
Rh        3.30919378795623   12.29451249462594   12.17312392400126
N         4.08954719581300   10.49229476580243   11.64447388617775
C         4.45656392291336   10.44059677147037   10.33245154061425
N         5.01594318747996    9.28130683441952    9.99116981324322
C         5.01108802287086    8.56391108966900   11.13083435412808
H         5.40758655313765    7.56797321693015   11.15677196469138
C         4.44007601836585    9.29870398356161   12.15678673888893
H         4.26783252798502    9.03861130781601   13.18241616297042
N         3.47590242332213   12.58586674053393   10.14612078805625
C         4.11052290584577   11.57513405574206    9.55235549688208
N         4.24597836909937   11.82997153489739    8.23612215171450
C         3.66918923044279   13.05094432022101    7.99231064804535
H         3.64293025384374   13.48429384073672    7.01435833850520
C         3.19602601391830   13.50577060799353    9.18581415462149
H         2.67871713567827   14.41614794944153    9.41461396474134
Cl        3.22392634849514   11.78819162385374   14.40173392731900
Cl        2.47826880243098   14.42535222828534   12.48730350343893
P         1.13337268098211   11.51562456663112   12.07080007857413
C         0.92421277423546    9.85190964396515   12.83077099856265
H         1.56457245488843    9.17162782119924   12.25983329649776
H         1.34469746566945    9.91772172369248   13.83847927985565
C        -0.50099459889562    9.31204072088922   12.88505118778609
H        -1.11109021595764    9.93220860346324   13.54366287114554
H        -0.95322626713469    9.33116703407621   11.89079230750585
C        -0.51689049580861    7.87643263830985   13.40913052041407
H         0.09307914046663    7.24604038070280   12.75766505616378
H        -0.06898510082532    7.85307066479757   14.40473357208773
C        -1.93261587552496    7.31645785516629   13.47571161944136
H        -2.55165429409308    7.92000807663532   14.13596659537655
H        -1.92275548734264    6.29680174378057   13.85290723820027
H        -2.38951055743057    7.31179602416128   12.48807439518925
C        -0.17716278556212   12.55015409217754   12.84021102946294
H        -0.15140385516503   13.51745358152605   12.32883148405472
H        -1.13897752577765   12.07171384957959   12.62581157135657
C        -0.00507707039019   12.76118559213726   14.34072627797249
H         0.06504466537541   11.79804785638482   14.85112711701918
H         0.92622838477912   13.29836595436954   14.52264378491938
C        -1.16508658407884   13.56280621506674   14.92459306550666
H        -2.10654579875365   13.03789342992688   14.73707992388170
H        -1.21872678201483   14.53146497237647   14.42300374239025
C        -0.99207569064020   13.77699706277926   16.42286178226950
H        -0.95734396383116   12.82225682650546   16.94335648450470
H        -1.81629519291883   14.36064762082684   16.82697146987698
H        -0.06318848311454   14.30584311359588   16.62102408313660
C         0.42190934107992   11.33189188603994   10.37295434721623
H        -0.66708007225351   11.26278404279510   10.43921693051118
H         0.65848530910920   12.26173464549367    9.84496087746990
C         0.99949644761195   10.13876081761847    9.61432506331819
H         0.48625627915517    9.22378964666315    9.91662858112739
H         2.05425006967010   10.01592912103002    9.87003320906882
C         0.88235051469667   10.29988087806936    8.10022335260120
H        -0.17166559210955   10.36311983810534    7.81877984043535
H         1.35913350747173   11.23684203342565    7.80044359882204
C         1.54149573071673    9.13680011177843    7.36864757816624
H         2.58309355221860    9.04156515562012    7.66964905502416
H         1.50067933727618    9.28519021117426    6.29197895676449
H         1.03586106008897    8.20325684212408    7.60457739609403
P         5.44516679801483   13.13645294231333   12.51853218335682
C         6.78881213227993   11.89785391331477   12.76878132006011
H         6.73985508343632   11.20248081275282   11.92415945171417
H         7.75253064495202   12.41357822980150   12.71471142443257
C         6.65864150701836   11.12802941534935   14.08044389751197
H         6.93034527975802   11.77474882887773   14.91712897352059
H         5.61932293760883   10.82951719186590   14.22606558829011
C         7.54586409395182    9.88585771316962   14.09330048445264
H         7.25658661213164    9.23121750505403   13.26748499204333
H         8.58813298312411   10.17774504401260   13.93653795387694
C         7.42086091142947    9.12732888749512   15.40853130366339
H         7.73456185877215    9.75228335943504   16.24193164503836
H         8.03929344699456    8.23279993329624   15.39718225862270
H         6.38798558752629    8.83172320640910   15.57610695077438
C         6.18394064832570   14.11437197160474   11.13602987083862
H         7.24672800927085   14.26874812190217   11.34489225072330
H         6.11747446248679   13.49111456989581   10.23755266917787
C         5.47773667984759   15.44743649026976   10.90358242145259
H         5.75510573292328   16.15029533758694   11.69127468847543
H         4.39741438877005   15.30479527749361   10.96558934630059
C         5.83496543148782   16.04958120630448    9.54697823679457
H         6.91776188860249   16.18767876371059    9.48211083101159
H         5.54159988567250   15.35466662311316    8.75539391453105
C         5.13729804251706   17.38620719182362    9.32931653766184
H         4.05890143662878   17.26438611154569    9.39670514424468
H         5.37985340790781   17.79273962824598    8.35010628574097
H         5.44542325650083   18.10440242637495   10.08554034045512
C         5.54841913420771   14.23947131887901   13.98082948505821
H         4.81485796766414   15.03466755643836   13.81401858618514
H         5.18894893321445   13.63998581698113   14.82175571942686
C         6.92167646831956   14.83179422079394   14.28052800718659
H         7.63819075895663   14.03699784643923   14.49698463983457
H         7.28596327842757   15.38351681288887   13.41135991397804
C         6.87190651645900   15.78938016238146   15.47368027633855
H         7.83438936793666   16.30252208790269   15.54717356361832
H         6.10557796626322   16.54653696057124   15.29461299337728
C         6.58691556698564   15.08304385624632   16.79376412251893
H         5.59966725307746   14.62976335532244   16.79038761989024
H         6.62955751822481   15.79327908116394   17.61622635146921
H         7.32441487322801   14.30410312346417   16.97713658005534
H         4.67799212356746   11.21253083659682    7.56967019862865

