45
CSD_code = POPRUH | q = 0 | S = 0 | Stoichiometry = C20H18CrO6 | MND = 9
Cr        0.29135172142606   -6.85011943166851  -11.66368080674810
O        -0.07380138238484   -5.25473453823426   -8.75035940188265
O         0.00979939355054   -2.53473211847785  -13.13804804202381
O         2.14989369111998   -1.86919081722933  -13.27013834970360
O         2.43655847121954   -7.25189631168075  -13.68452296927768
O         2.46861921190659   -7.90178276713638   -9.92843925467665
O        -0.00037434383018   -9.76828474193760  -12.17443165705496
C         0.15780022343180   -4.67806200169202  -11.01789518031562
C        -0.49376813552355   -5.45808214079854  -10.02571784330695
C        -1.53352317368538   -6.32796455507038  -10.38748406026142
C        -1.92872680879466   -6.41776001821157  -11.73536206701383
C        -1.32050417022554   -5.63166438922413  -12.71321250721066
C        -0.24357539219708   -4.79078383346430  -12.36254809625749
C         1.20916859267819   -3.71385633904982  -10.61302610408054
C         0.85269082269501   -2.49645425393706  -10.02838585709854
C         1.85850127428326   -1.60500480679554   -9.68439063869237
C         3.18873969656641   -1.90495393910690   -9.91658743901889
C         3.53382315418183   -3.11360627825579  -10.49460314453852
C         2.54597105376485   -4.01677590381765  -10.84005490987845
C        -0.38980170919747   -6.22499255334873   -7.77516600535227
C         0.37987708623405   -3.89377249784744  -13.39912295209191
C         0.99115777553283   -1.62020658082735  -13.08329513421050
C         0.43338634644752   -0.25690670521335  -12.77909176378082
C        -0.58987513028620   -2.16559876830856   -9.78680853454195
C         1.58987214196447   -7.06272496061938  -12.92156920514561
C         1.61434371011243   -7.46790642296510  -10.57472141656154
C         0.06734545780763   -8.63224860810574  -11.97500167143959
H        -2.08098265714735   -6.87899701467386   -9.63488798868893
H        -2.78200427255629   -7.03486865399160  -11.99164914043615
H        -1.68908585670952   -5.64073510599812  -13.73137712914730
H         1.59230052564315   -0.66030108316144   -9.23006093451267
H         3.95490169337848   -1.19289665076776   -9.64876790695929
H         4.56893896113268   -3.35300083588897  -10.68094749568795
H         2.80262682057083   -4.96895097923397  -11.28725404948796
H        -1.45212289742344   -6.20318577929079   -7.51007627519020
H        -0.11060520342707   -7.22743120934853   -8.11495221074948
H         0.20101883169553   -5.96023607383896   -6.90038134689697
H         0.02068347369365   -4.14985568955838  -14.40137330701466
H         1.47461967468894   -3.95769304863100  -13.38225148542067
H         0.94497762118697    0.14267634526074  -11.90727011994555
H         0.63636857983448    0.40219119234496  -13.62039161101292
H        -0.63524917746638   -0.31202974306114  -12.60021755124925
H        -0.70246455008288   -1.12928633377289   -9.47718763022439
H        -1.17950661689273   -2.32879217054826  -10.68915598967046
H        -0.99166452891893   -2.80414088281577   -9.00003281554034

