45
CSD_code = POPSES | q = 0 | S = 0 | Stoichiometry = C20H18CrO6 | MND = 9
Cr       -0.87134268873988    3.01930970787783    2.05250924800558
O        -3.29510956868107   -1.16454731079856    1.04434941986524
O        -3.87481591655727    3.74402080853905    2.52543163641655
O        -6.06322965354550    4.12722168161487    2.22425615476810
O        -0.94534697976408    3.76038308008647    4.93184458089585
O        -1.44754147163870    5.93553432140156    1.95200909239654
O         1.76101329445200    4.26774004096708    2.63094552746400
C        -3.78102574828960    0.75846230142768    2.28488440544761
C        -4.17434693465960   -0.52782541992522    1.87518776993741
C        -5.37854029727671   -1.05812123132688    2.31220539891380
C        -6.19107357880947   -0.31141719685263    3.14996430925175
C        -5.81181423191681    0.95132711218209    3.55624419733418
C        -4.60386646827095    1.49333997965368    3.13136695323837
C        -2.49111217219928    1.24912513694559    1.73475360755025
C        -1.25928010790686    0.77999371209990    2.27116051184430
C        -0.07851415750625    0.98372627546006    1.54705689673325
C        -0.08172921492705    1.75065711715584    0.36880615311751
C        -1.27444523361546    2.30996532651248   -0.09142567339351
C        -2.48121957538877    2.02098615084731    0.57625988319077
C        -3.62885290399510   -2.44528424182608    0.56813519487810
C        -4.18975353553139    2.86069598306674    3.60514714412261
C        -4.91830416890303    4.34335941295359    1.92854800348373
C        -4.45882322292380    5.31155515094714    0.87641261629446
C        -1.25827821688706   -0.09660767759226    3.48939573279815
C        -0.97712717993328    3.42968760937908    3.81970957807986
C        -1.28109421725554    4.78974450856217    1.93991538156230
C         0.75634689525635    3.75434589937506    2.37235130396316
H        -5.69605750634357   -2.04117672099156    2.00380690593786
H        -7.13096548435034   -0.72560353506436    3.48090388182118
H        -6.45490657323032    1.53053585003872    4.19932906037109
H         0.83638701535840    0.49910812515854    1.86802194569890
H         0.82750097300759    1.84785294993617   -0.21273678188108
H        -1.29823314665868    2.84822195205481   -1.03182297752276
H        -3.42446461602839    2.32455553734785    0.13688010297372
H        -4.55152700663503   -2.42773566826224   -0.02003713643641
H        -2.80058901951667   -2.74561992444150   -0.07197714633203
H        -3.73228760535697   -3.16528521019203    1.38633034926853
H        -3.27023167102596    2.81019241813469    4.19363077741011
H        -4.99359351280946    3.30268746561667    4.20173644670392
H        -5.31147550642598    5.66148728667456    0.30257707470934
H        -3.72144360062145    4.84622204863329    0.22886859909957
H        -3.97550947135736    6.15341378447684    1.36758662459328
H        -0.27741099294325   -0.09992974577252    3.96042841542544
H        -1.51031718320802   -1.12163174280121    3.21110160259371
H        -1.99514783644506    0.24282689072013    4.21544722740783

