77
CSD_code = POPTOD | q = 0 | S = 0 | Stoichiometry = C26H48MoN2 | MND = 4
Mo        2.65855968561934    2.18186525353901    3.42917144097070
N         2.03339560135013    2.30268660405583    1.79743989398005
C         1.10393780862160    2.51939088442941    0.75244871952497
C         1.82154512566135    2.79146664452970   -0.58356538617966
C         0.20026155722300    1.28033781145574    0.59256057953259
C         0.21998908849597    3.72788805270202    1.12423216162676
C         4.19799101904456    3.65851278641774    3.83898393580435
C         5.10739876724212    4.12224360980720    2.69751142182329
C         4.31542425091641    5.06326187790273    1.78515792695325
C         6.33269848190304    4.86783719040453    3.24630559475761
C         5.57604948804239    2.90723197143597    1.89091043470496
C         3.55596974035755    0.24370814669957    3.83549008402331
C         3.53682643961936   -0.95521451895501    2.87964610897549
C         2.10223475070652   -1.46596725576966    2.72489647323274
C         4.07261936239949   -0.54651740408839    1.50453870384595
C         4.41063139711413   -2.09008752238129    3.43613325588363
N         1.54370503379371    2.45327948977357    4.76249616557451
C         0.41942787587214    2.69662821512137    5.46033867804944
C        -0.60011403376064    1.71681613468599    5.55478175939765
C        -1.73761065667518    1.98333923961333    6.29427989173574
C        -1.91422997025596    3.20102609193234    6.92501338502170
C        -0.93232019685668    4.17135953657671    6.82395471776049
C         0.23032862324770    3.94128761247345    6.11368965246118
C        -0.41418468910251    0.38154747273588    4.87590246984684
C        -0.05909550365548   -0.68202881404498    5.91895542766216
C        -1.64519486282855   -0.04142145324035    4.07347962336454
C         1.31152614041266    4.98723272450247    5.97595141635884
C         1.17254149190727    5.67066506490539    4.60989509452002
C         1.31890915074425    6.02916939928832    7.09240616449186
H         1.09338269634235    2.94605725226484   -1.37596692011151
H         2.45287365411658    1.94492364908235   -0.84709048270950
H         2.44728443618421    3.67764447052872   -0.50421214810039
H        -0.56773554742066    1.46375569832205   -0.15512796534120
H        -0.27482624296437    1.05873170040877    1.54726139881938
H         0.79200073286125    0.42177069845241    0.28135334177041
H        -0.55884054402575    3.87999151289851    0.38078242631481
H         0.82684905926309    4.62980964441963    1.18832793562788
H        -0.23817117978067    3.54388034557385    2.09781340077445
H         4.83064207591966    3.11706611100242    4.58264144710530
H         3.85260467883231    4.56225562839489    4.35676574130074
H         3.39624435087513    4.56952988838717    1.46752508611530
H         4.89788080396365    5.33495396315779    0.90656999430971
H         4.04981562755215    5.97604445805469    2.31507853896744
H         6.93328421868982    4.21396251970994    3.87729061564338
H         6.02512851739848    5.72629914577044    3.84057114710478
H         6.96097595175717    5.22485331267215    2.43203496042353
H         6.15233224933427    2.22594471572451    2.52061578277633
H         6.21208487162232    3.21418022825470    1.06160678482507
H         4.70587458536264    2.38048128113963    1.48674855732435
H         4.62742384717994    0.52646496488909    3.97323791881611
H         3.22092344983647   -0.12653465952743    4.82112156405454
H         1.46376217914104   -0.66371721950688    2.35659539574101
H         1.71490140757971   -1.81038642632711    3.68107265390370
H         2.06458571085077   -2.29694684328850    2.02240825469550
H         3.47509529818317    0.27514537726952    1.10629858858236
H         4.02002339311515   -1.38349360030100    0.81021951596918
H         5.11282213956015   -0.22937966545758    1.57113187194048
H         5.44459237038428   -1.76558528998323    3.54482475145462
H         4.39398070974415   -2.94901586985776    2.76770266825360
H         4.04873284005545   -2.41118893911317    4.41135618200285
H        -2.50640767584826    1.22926621776226    6.37831430131187
H        -2.81278781079504    3.39521586380977    7.49195647922579
H        -1.08352835676197    5.12041804959599    7.31446801036798
H         0.43181491336928    0.48778038003787    4.17628271178491
H         0.07612505257857   -1.65360693258021    5.44728637010142
H        -0.85277234956619   -0.76700089899775    6.65863262027117
H         0.86020164642074   -0.41042794560634    6.43437264947537
H        -1.41260963912131   -0.91388020508076    3.46558402497765
H        -1.96601581485718    0.76487398839880    3.41730895219948
H        -2.47298747404716   -0.29907290102252    4.72979982993767
H         2.27343268524269    4.45577452761863    5.99937659686404
H         1.93271527893857    6.44043522736796    4.48723445513913
H         0.19264162354164    6.13664051429385    4.52516920652360
H         1.28394645988067    4.93079423047454    3.81190278601047
H         2.21892488300012    6.63752225255395    7.02145627565694
H         1.30484320766746    5.54975451640328    8.06863115476981
H         0.46131406168802    6.69337021539391    7.01435877128828

