78
CSD_code = POPVAT | q = 0 | S = 0 | Stoichiometry = C40H29N5O3Os | MND = 5
Os       -2.25004364526119    1.86200576837959   19.52351082420811
O       -10.81681920781553    4.16308145083778   21.21635121952687
O        -1.06763490184909    8.62444733485992   13.77938299671000
O         5.29098154403143   -2.56075508338145   17.20888629052030
N        -3.82132886139667    0.90408706697621   20.16389778240072
N        -3.51429335696357    3.13528748168228   18.69813861287885
N        -0.96477724058084    2.09707034423976   18.03627939430783
N        -1.57782481474441    0.03920313303641   19.65048808108807
N        -1.58944514069436    2.75533951390219   20.76470490340194
C        -3.62214225845022   -0.35762464639878   20.66294066294786
C        -4.81561541258985   -0.77404046615013   21.28403274706575
H        -4.97220106354709   -1.71763581272533   21.77004509400875
C        -5.72996054257136    0.24890012781206   21.14112524691033
H        -6.73543732076078    0.26507900121696   21.51401625401777
C        -5.10587290667833    1.29602813495614   20.41208446865075
C        -5.59509040130571    2.51497933861501   19.90906935277129
C        -4.82744379621953    3.34350508314028   19.07420072897640
C        -5.30840987127395    4.47901052259163   18.35705752865952
H        -6.30800393135174    4.86303358221724   18.42046561062196
C        -4.29701081572974    4.93670492087060   17.56552770058200
H        -4.32746995294770    5.76239888972623   16.88179063698966
C        -3.16518357094617    4.09808963011076   17.78376441857793
C        -1.92184397366155    4.17991987551383   17.13590565167101
C        -0.89157533617698    3.23861375603497   17.27186246961262
C         0.38867724451252    3.27236235640286   16.64481926718255
H         0.74612824240634    4.06722404109459   16.02007409677159
C         1.06028055580022    2.14537961734608   17.01388885976881
H         2.05779225623756    1.86554298742021   16.73671189884710
C         0.20948419307485    1.38435130254879   17.86972601452555
C         0.49039701318232    0.12114522348919   18.41129218351285
C        -0.41619004503913   -0.55246523264899   19.25170114225005
C        -0.43388617461055   -1.88628772382131   19.73890805271203
H         0.33900238869705   -2.61351956329455   19.58142468215783
C        -1.62219820385407   -2.07617666325533   20.41360169320561
H        -1.95863969123754   -2.97698364943559   20.88944228040486
C        -2.33946140333128   -0.86616731779152   20.34372988150675
C        -6.97422922215095    2.91745103431418   20.22795589624671
C        -8.05123500867047    2.07991667710333   19.96468686110338
H        -7.87943250011223    1.12665338489512   19.48652782004627
C        -9.34677322438998    2.45564680253083   20.27433239311965
H       -10.15560867790749    1.77933010171401   20.04536857421759
C        -9.58954222892479    3.68997128323135   20.86664332218493
C        -8.51115420875038    4.53667024361556   21.13449100486445
H        -8.71279322020296    5.48964139086689   21.59751279991585
C        -7.22713384990292    4.15743139992562   20.81671905391936
H        -6.39938030292148    4.81319301011765   21.04107706110187
C        -1.69833772925952    5.32364755515796   16.22924774186605
C        -1.79339797064672    6.63143866206951   16.70444281234924
H        -2.02186171575097    6.79836873771860   17.74624505986018
C        -1.57615232256187    7.70186398448007   15.86652261372495
H        -1.63865163666980    8.71571258747711   16.22901547550573
C        -1.26326973435951    7.49909542023779   14.52043361928147
C        -1.17540006423340    6.19850080796295   14.03692420465768
H        -0.94379269438100    6.00352847631396   13.00135884270672
C        -1.38952425750405    5.12889470527963   14.88894945442127
H        -1.32988381766706    4.12333974085714   14.49827290602483
C         1.74436656395840   -0.56155748218259   18.05933547213813
C         2.11631656260851   -0.75868804960255   16.73438195755254
H         1.46927949523248   -0.40915194571698   15.94292343756007
C         3.28651140599283   -1.42025810073295   16.40656188719192
H         3.53421120329104   -1.55836954750307   15.36556394489105
C         4.11853106494969   -1.90018278246770   17.41233682764253
C         3.74874185107247   -1.70981712913106   18.74601136788393
H         4.40350278106151   -2.08601114661925   19.51618345665585
C         2.57923409755499   -1.05709313475942   19.06221004531909
H         2.30989529260311   -0.90347150957993   20.09634643880557
C       -11.94334444917104    3.35452654294574   20.98162959436356
H       -12.07216792633714    3.14276938611598   19.91510628999223
H       -12.79706872948663    3.92818250123101   21.33901298213325
H       -11.88482785136465    2.41164436962305   21.53509248924789
C        -0.73190694970823    8.48596916959854   12.42066219837060
H         0.20869058798857    7.94026374835362   12.29171315990589
H        -0.61338448120302    9.49981040967141   12.04160507136960
H        -1.52503583012211    7.98139863709360   11.85878987942528
C         5.72480757857427   -2.77143160283924   15.88784631420680
H         5.01586822666431   -3.38712114301205   15.32444553360119
H         6.67246902133348   -3.30132526968267   15.97007569375661
H         5.88502527510102   -1.82521625278598   15.36058971091031

