84
CSD_code = POPWUM | q = 0 | S = 0 | Stoichiometry = C27H51Cl2NOsP2 | MND = 6
Os       -2.83452439828490    4.80602023145514   13.80809223305226
Cl       -4.75520264581185    5.44215959239476   15.07078616277100
Cl       -1.81269538239418    4.13002564744341   15.79852609459852
P        -3.49937657837775    2.52079978150997   13.57010934776351
P        -4.05941446682752    6.15373995981480   12.25494555261389
N        -1.93515051297360    7.04120634698297   14.45525751708337
C        -1.33320902148034    4.60584182950915   12.70742187912454
C        -0.27821187280243    4.64207532206293   11.92286714098576
C         1.10912955831823    4.40751098286683   12.30299647339436
C         2.10310594147830    4.38612055075982   11.32318758812634
C         3.42370422135595    4.16710594408716   11.66361641754732
C         3.77928065265345    3.96631935402576   12.98701937836430
C         2.80042944462569    3.98924576348154   13.96852270709528
C         1.47948299335597    4.20936443173726   13.63600533770837
C        -2.42677716602788    7.43748667893900   15.77550205452869
C        -0.47390427093099    7.02504684994921   14.53131314106627
C        -2.35563761365445    8.01525341742118   13.44467912769550
C        -3.80718689512175    7.82705857176229   13.01702886220916
C        -3.29766434898268    6.46801810899094   10.56102013982125
C        -5.92768142100038    6.11122607467003   12.06495218199083
C        -5.07667283809654    1.97468986250545   14.41930365146110
C        -3.80989357263926    1.98067661343096   11.79141021739858
C        -2.28727968844025    1.30561897037801   14.33739888919826
C        -3.16241948165219    5.16966791001258    9.77192576691852
C        -3.91630374236281    7.55681570418528    9.69105768089493
C        -6.36383989950289    5.15843982148669   10.95504337259781
C        -6.62021338152104    7.46343258541488   11.90897250378477
C        -4.96632422684218    2.08311597477791   15.93822645346637
C        -6.30329777375692    2.73918575467111   13.92762745325884
C        -4.72117188318061    0.77732760279268   11.55766956093318
C        -2.48912266354705    1.77457851824980   11.05349403801738
C        -0.84418612760906    1.52583777561476   13.89129421895191
C        -2.63831210760192   -0.17555962622868   14.22160722903464
H        -0.42183673971813    4.84754795382317   10.86376663529439
H         1.83476656795665    4.53927569278404   10.28623604331624
H         4.18054185966368    4.15215040955206   10.89180248498543
H         4.81237002994754    3.79445038609009   13.25143597899893
H         3.07033340590180    3.83525452775461   15.00317728760944
H         0.72235267018973    4.23094504315973   14.40480464062685
H        -3.50949644310745    7.53209898687648   15.78075614412789
H        -2.15098081133191    6.67557949914622   16.50363866664889
H        -1.98913490765804    8.39755702957797   16.08110031421564
H        -0.04585060419694    6.73173067451440   13.57517067146926
H        -0.08775902281544    8.01524310294233   14.80807453447572
H        -0.16404511683768    6.30520684329122   15.28605018687882
H        -1.70451042162379    7.89580885170339   12.57280962005376
H        -2.21552098892673    9.04026101840968   13.82784961894693
H        -4.46801923526185    7.88407796451611   13.88400019359020
H        -4.08923903080076    8.61521975777667   12.31617567211621
H        -2.28045618387360    6.78382566929097   10.83274797219386
H        -6.25113152421012    5.68527237258416   13.02180076505064
H        -5.19374131407849    0.91991346420208   14.14404109410923
H        -4.29781986726541    2.86427222113316   11.35936385804037
H        -2.33526226137813    1.59535790812906   15.39373458732277
H        -2.81108647989499    4.37950277391400   10.43049943857111
H        -4.10957067615641    4.87074963102547    9.33225480192825
H        -2.44518029377135    5.29603615918224    8.96173924696073
H        -3.99832121847632    8.50696436509618   10.21306938753122
H        -3.28263753452216    7.71537764800581    8.81866489849321
H        -4.90013590526236    7.26587625414071    9.33323137198590
H        -5.78956550011912    4.23511053712227   10.98816789086194
H        -7.41695205830078    4.90859547484035   11.07763973276269
H        -6.24152499741874    5.61143706820603    9.97393903177604
H        -6.47837379934410    8.08978351150579   12.78496330199273
H        -6.27901060552714    8.00269936096545   11.02987140690461
H        -7.69045351456883    7.29025450220821   11.80053599948806
H        -4.28153212709679    1.34714775252940   16.35198045488802
H        -4.62336598259278    3.07352173933331   16.22713430076908
H        -5.94591950827070    1.92490614821654   16.38719012800722
H        -6.32330260965057    2.82833526697139   12.84432199375882
H        -7.20934695914510    2.22691021654471   14.24995925991447
H        -6.31092185911257    3.73673987043275   14.35487385663821
H        -5.73140684129356    0.94572387097255   11.91730976032440
H        -4.77886612212571    0.59236313953804   10.48484873458979
H        -4.33077864955670   -0.11974142722326   12.02740311434767
H        -1.76040144871714    2.52284947488952   11.35635351377988
H        -2.08490484287271    0.78868708390366   11.26434583116389
H        -2.64429484049465    1.84658030685996    9.97757348599256
H        -0.64175720428034    2.58785185102142   13.78984928128505
H        -0.16678867189867    1.12263218651443   14.64129336171487
H        -0.62980850718875    1.03642781427578   12.94636085766268
H        -3.64095888763893   -0.40117765439422   14.57382842300970
H        -2.53307809092447   -0.52693546800633   13.19839115836341
H        -1.93847315471916   -0.74221174300471   14.83488863100620

