59
CSD_code = POPWIA | q = 0 | S = 0 | Stoichiometry = C18H24MoN2O8S6 | MND = 8
Mo        6.27263289262050   15.89632128493737   -0.89074107339121
S         6.64313100210488   14.66297769776506   -3.19545110389164
S         5.97762921335119   14.69770316205933    1.19608414585995
S         3.76166933887840   15.58193870786665   -1.38191923219121
S         5.41346129204964   17.64845749462012   -2.52723232168657
S         5.74649292404980   17.75539596423695    0.62123936859667
S         8.31781340313938   17.05688042664541   -1.17600306992713
O         8.83351165770462   14.16532312424736    1.18681151831707
O         9.89406566037507   14.42216413672373   -0.78162454736288
O         5.78186896621355   11.98280697301296   -1.62517394327389
O         4.23906004650401   12.74727235349590   -0.17264926398858
O         5.42517419438229   20.88638773804431   -0.31600054052479
O         7.03154205870635   20.90895864701584    1.25865507134544
O         8.40919620061887   20.94924777570860   -1.17439845448094
O         9.79783457069419   19.34197038664639   -1.90362554050080
N         8.44403803168455   12.77170303990818   -2.76866590606052
N         2.86478165323921   18.03804411280057   -1.97356153010269
C         7.67474791149341   13.70954764771383   -2.26365983585186
C         3.86886202496124   17.18515932778134   -1.95768895025743
C         7.59194411611930   14.09342383330025   -0.85431913016641
C         6.28769719197955   13.84704903698226   -0.26955368494637
C         6.77507866557716   18.96066708263049   -0.01751020341803
C         7.86303268490823   18.68242477576034   -0.78145310557886
C         8.46787940166851   12.52948258234177   -4.18960042678406
C         9.15181440351437   11.81746504453806   -1.95224246051030
C         3.09386922636693   19.40359142534030   -2.39702348495726
C         1.56532084829098   17.71016581775424   -1.44487676689279
C         8.80209144275531   14.21525238187033   -0.01745291101958
C        11.08499992163781   14.72813113004925   -0.06940563800781
C         5.42899757076930   12.76642371914334   -0.76465571076299
C         3.31983629936969   11.77672353831728   -0.64960947300237
C         6.34625194234409   20.37193000462995    0.26421107807672
C         6.74545687743859   22.27246553453417    1.54781999074775
C         8.69809894376425   19.77973338975805   -1.29166961619331
C        10.64812441642845   20.34332259404706   -2.43819866622011
H         7.68914644948712   11.81348043417696   -4.46188396930007
H         8.28152594906619   13.46162620416720   -4.72137678079223
H         9.44245252784329   12.13386479814436   -4.46950698448240
H         8.80616672627012   11.86546966807347   -0.92197234737741
H         8.95558274937058   10.81562919911258   -2.33606097460865
H        10.22582700992331   12.01342513605475   -1.98249401802082
H         3.82479597209257   19.89245768703694   -1.74444911572991
H         3.48689502375981   19.41884578148955   -3.41459575070810
H         2.15476725239041   19.94782354202829   -2.36138295770835
H         1.35636481497324   18.32694512888781   -0.56854438888368
H         0.80242620115029   17.89225513922023   -2.20327071852954
H         1.54457037110914   16.66086334899908   -1.15728869210334
H        11.31206358166713   13.93823061226247    0.64988633154726
H        11.86958108395009   14.81134711610437   -0.81676299283828
H        10.96746100202593   15.67212417315343    0.46550342969812
H         2.46062397878472   11.82640798977518    0.01359071710586
H         3.02680173091001   12.01277827771502   -1.67478806631432
H         3.77259298273809   10.78314988599244   -0.62736708739038
H         7.25054067623777   22.49734426809563    2.48351645504056
H         7.12941863117393   22.89862371869454    0.74055129618404
H         5.66803247624243   22.42250552440530    1.64020693961015
H        11.06090066651580   20.95795738117667   -1.63504029326064
H        11.44099607443030   19.81777531037883   -2.96406069411832
H        10.09095907243510   20.98735778274705   -3.12186391794515

