81
CSD_code = POPZIE | q = 0 | S = 0 | Stoichiometry = C44H32Br2P2Pd | MND = 4
Pd       -0.18503556650482   12.09834639964281   19.64222346927989
Br       -2.59431393360752   11.99375621221087   19.38712344804940
P         1.78814288332657   11.86880521776315   20.69231203901469
C         2.36497359908728    9.16376160305483   20.33122804424082
C         1.99696682455244   10.13739280973481   21.24382060028077
C         1.62239143728821    9.76193250651761   22.55103167984457
H         1.34232764864671   10.52735875654372   23.26078383569273
C         1.61114605794891    8.45018203957988   22.92529551054913
H         1.31324830590182    8.17244209326072   23.92599258083484
C         1.97806056953996    6.07382479327812   22.38766191755677
H         1.66122328829728    5.81038822117215   23.38638384619295
C         2.36296552905577    5.10939099947054   21.50006902673816
H         2.35496633167658    4.06826662367649   21.78644174182536
C         2.77470514854798    5.46644040815029   20.20722565871889
H         3.08169387435741    4.69507984612845   19.51647797754941
C         2.78515775209509    6.77617529393493   19.81880796473412
H         3.09901389053517    7.04442320453369   18.82091275257709
C         2.39254183916037    7.79712451149973   20.71190587142912
C         1.98791449028551    7.43525839119621   22.02265775117742
C         1.64693948961719   12.78801127560152   22.25099867006900
C         0.37003543511062   12.79308182094174   22.81945686657654
H        -0.44997333073471   12.26233618765801   22.31872212246399
C         0.13430385842978   13.49006246370874   23.98664707634007
H        -0.85461735692939   13.50102209948582   24.41956503718005
C         1.16809557502028   14.19532253536795   24.58607260382725
H         0.98246717236734   14.75235294248095   25.49208792416129
C         2.42898062472312   14.20515269209439   24.01567796607503
H         3.22586942820784   14.77105185763503   24.47516635296536
C         2.67523801250431   13.50409322874241   22.84638533339981
H         3.65407024239161   13.53318747764530   22.38945446487986
C         3.35154292416714   12.32969694063628   19.91155911609393
C         3.28467558205345   12.99663760406815   18.69321222698688
H         2.31202632149982   13.23600719101045   18.26874131034350
C         4.44851771653052   13.34968863363999   18.03697246081455
H         4.39959821100085   13.86506752660172   17.08964597415524
C         5.67611842989559   13.04145835808037   18.59987895248854
H         6.58690408435028   13.31568465797536   18.08881815097408
C         5.74366878818524   12.38211053959837   19.81733222633157
H         6.70427510004227   12.14518029384539   20.25051520000515
C         4.58445848225075   12.01745790958041   20.47508145121617
H         4.62722723176415   11.48260354848728   21.41470375735127
Br       -0.08101259506438   14.50561994975942   19.90025444226687
P         0.04368758355223   10.12404917541507   18.59409048474008
C         2.74870387499324    9.54744913870843   18.95526883209254
C         1.77509934331836    9.91541325723156   18.04264407381065
C         2.15052790244913   10.28995766162539   16.73542194951874
H         1.38509304831926   10.57002930436318   16.02568348250849
C         3.46227416496088   10.30121426155361   16.36116756196394
H         3.74001357092566   10.59912867938921   15.36047695752544
C         5.83862231890395    9.93434629151562   16.89883404847042
H         6.10205510924787   10.25118480591665   15.90011210988836
C         6.80305196007746    9.54944567122922   17.78643328729977
H         7.84417509627513    9.55744646223299   17.50006160711035
C         6.44600182309290    9.13769214211513   19.07927361774901
H         7.21735843623009    8.83069501880124   19.77002052107333
C         5.13626800829379    9.12722945291603   19.46768754036108
H         4.86801214019942    8.81336985382669   20.46558003006459
C         4.11532958329235    9.51984534728192   18.57458337943041
C         4.47718997232260    9.92446930258453   17.26382635264140
C        -0.87561079453811   10.26540455478482   17.03548450126192
C        -0.88066513306312   11.54232255543897   16.46707538442639
H        -0.35004646621508   12.36229780095105   16.96793992843745
C        -1.57763448438316   11.77808583966385   15.29988133024795
H        -1.58860668092176   12.76701882443978   14.86699330675622
C        -2.28290547978418   10.74431091167286   14.70043197969711
H        -2.83994958645798   10.92996051385374   13.79442875509660
C        -2.29275114939784    9.48341604881098   15.27080237066358
H        -2.85866025877670    8.68654003199681   14.81130730975949
C        -1.59170380457073    9.23713028299762   16.44009288314175
H        -1.62079781872936    8.25829158659705   16.89700709380332
C        -0.41728733430063    8.56076358184123   19.37494350443654
C        -1.08420531364932    8.62771273763604   20.59329230741568
H        -1.32350396610986    9.60040595922839   21.01776838676355
C        -1.43728759283917    7.46389182290081   21.24955508657041
H        -1.95265178395420    7.51284159256436   22.19688763734649
C        -1.12908523475714    6.23626872078081   20.68666947747472
H        -1.40332176288911    5.32550076387944   21.19775097742188
C        -0.46974389407559    6.16866590754464   19.46921596561895
H        -0.23282759295124    5.20805178461236   19.03604846914190
C        -0.10508137391643    7.32784622322328   18.81143893402128
H         0.42976417224899    7.28506846188245   17.87181317099494

