72
CSD_code = POQJUA | q = 0 | S = 0 | Stoichiometry = C35H27Cl2N4PPtSe2 | MND = 4
Pt        2.06296214068929    3.53949536632092    1.82529736547360
Se        1.16040797005544    5.80875991087585    1.63594806094972
Se        2.38101526722463    1.11126598071861    2.14076424415725
Cl       -2.22333877291959   11.88261648805446    1.74085219108830
Cl        2.09303246402337   -5.81994616166621    2.88051343643486
P         4.28815216107067    3.88652206221194    1.37280718572586
N        -0.80417806062592    3.97284867382301    2.29816487963909
N        -0.27436461134920    1.86881397372017    2.43361460551216
N        -1.63867249312900    6.07068296462472    2.36526093465942
N        -0.09083194298351   -0.37851138212835    2.51745113908930
C        -0.63601552958973    5.33522081369639    2.13478790629967
C         0.51017959628605    0.72944340434261    2.40431709710566
C         0.19319837357344    3.09499209332858    2.20725358234169
C        -2.07804000732440    3.34399646538161    2.62411423055765
C        -1.70926808790326    1.85553945030962    2.69349943890541
C        -1.70676158737822    7.43490463173512    2.20202396977596
C        -2.38843601381147    8.17336112608113    3.17263501345031
C        -2.53865844687904    9.53728492637691    3.03797157708130
C        -2.02748982472292   10.17267591269870    1.91599349449720
C        -1.37074445822927    9.45411791096071    0.93031573225614
C        -1.20774906968915    8.09108197786196    1.07485849058264
C         0.48859635615442   -1.62410730631401    2.58765914773624
C        -0.13761457139216   -2.67170540372659    1.90730150612229
C         0.35846636922153   -3.95570382981423    1.98739131930286
C         1.47488491559504   -4.20792091245969    2.77070761082097
C         2.09548413411213   -3.18716596749933    3.47241699403511
C         1.60666254255111   -1.89982694881302    3.37789090757688
C         5.18246091292072    5.47304873331948    1.32641306076589
C         4.52094473069998    6.57655832499349    0.79796620579603
C         5.17310875994853    7.78882774198864    0.67691314542882
C         6.49433281158461    7.90534867569960    1.07760344577953
C         7.16023017359142    6.80694998534297    1.59598318361425
C         6.51147516590963    5.59135013951108    1.71969083716168
C         4.53685537295538    3.31537746516357   -0.33245918688883
C         5.79543997136922    3.23544464446076   -0.91899675349239
C         5.91425753259101    2.80059969599067   -2.22573445051016
C         4.78409956473580    2.45505649300098   -2.95139584194857
C         3.52779044923574    2.54809436196514   -2.37494447285610
C         3.40449335063138    2.98022458618168   -1.06757748369446
C         5.33333222935300    2.82488326314751    2.40863504359480
C         5.53875638729389    3.23020169032782    3.72650653685329
C         6.22985330522064    2.41553622125666    4.60210733802987
C         6.70404941943775    1.18526259299241    4.17331018340011
C         6.47871617201164    0.76835826852497    2.87225264362704
C         5.78915753601849    1.58063405918018    1.98843610531249
H        -2.80943638428199    3.57378373386752    1.84593426225759
H        -2.44977806660827    3.74354085790083    3.57069229824663
H        -2.21024281075799    1.24871917491601    1.93555688993638
H        -1.89985382040452    1.40645087321408    3.67070319663565
H        -2.77834156132852    7.66282631322913    4.03952832928359
H        -3.05269842322233   10.10902366162359    3.79480889649843
H        -0.98797363909550    9.95887415007827    0.05706907862081
H        -0.71467350436718    7.52168322351358    0.30019854495606
H        -1.00515301160339   -2.45729480362832    1.30275311789923
H        -0.11764918059185   -4.76156568727199    1.45081368354027
H         2.95654827636517   -3.39893739373315    4.08690808959841
H         2.07399307621194   -1.10267786262150    3.93807172396786
H         3.48670856409225    6.48066548904585    0.48547942231772
H         4.64986280033729    8.64218567256811    0.27292684770757
H         7.00514188178305    8.85241680977143    0.98731861676942
H         8.19107695156970    6.89615875894969    1.90656077144902
H         7.03572544489592    4.73894641625568    2.12897025853220
H         6.67206020360974    3.51088720433328   -0.34867400224088
H         6.89055396203651    2.73068747024077   -2.68253553055845
H         4.88442833175208    2.11450270133101   -3.97125163701099
H         2.64926042322651    2.28321197242704   -2.94413331131450
H         2.41978327381775    3.06462574068501   -0.59453719050021
H         5.14904923149571    4.18715482919744    4.05267160726855
H         6.39137678978368    2.73365137220593    5.62169125806648
H         7.23945007743633    0.54595550065037    4.85946582547476
H         6.83284803846661   -0.19759782912656    2.54427566454763
H         5.59920041737127    1.24832848664819    0.97681168692772

