107
CSD_code = POQKEL | q = 0 | S = 0 | Stoichiometry = C53H42Cl3N4P2RhSe2 | MND = 6
Rh        6.46405197735692    3.11545834094955    4.11460956805034
Se        6.48329974066749    3.99735723328625    6.47404940269860
Se        6.56585190562048    2.93761886340867    1.61881074515412
Cl        6.18335837801354    0.82859963806811    4.54260488360334
Cl        6.20913152894732    7.67020076531587   12.48490982611066
Cl        6.52703482547227    3.60880972680797   -5.32690840736778
P         8.75977150349968    2.83712492964930    4.16434405136244
P         4.15332431211110    3.18258134833397    4.14953169734104
N         6.64497458593260    6.01992405141095    4.60649516914988
N         6.70914102815538    5.55633404186609    2.48598121333586
N         6.68015522262645    6.89183051087778    6.68166959403263
N         6.84743770929876    5.47285581307341    0.23516114749590
C         6.59252393224789    5.84489267840070    5.97507573454004
C         6.71048801166931    4.82402499295421    1.31484237181546
C         6.62000690698466    5.03146788844168    3.71047581749344
C         6.76386834903567    7.33624890874513    3.99373262958964
C         6.82000698145710    7.00898989613873    2.50039163951246
C         6.57479952642153    6.98939264269112    8.04861930132492
C         7.36257259021068    7.95116633552698    8.68724703987862
C         7.25961895972659    8.15467027056746   10.04706669139516
C         6.34844453704697    7.40961401867379   10.78051937607732
C         5.54323162891422    6.46585505462324   10.16351257144430
C         5.65911177060607    6.25443151913701    8.80464486634611
C         6.77841656094004    4.95895435947294   -1.03928991100203
C         7.64914163803298    5.48009950799390   -1.99941561768954
C         7.58095489059805    5.06044577711646   -3.31125472535182
C         6.62337302793273    4.12740273579524   -3.67944951598326
C         5.73731849419253    3.61307825439947   -2.74667366470199
C         5.81674601637437    4.02465626410614   -1.43174827275798
C         9.54394265463031    2.40501123295048    5.75151817161947
C         8.86712849845817    1.55997327483836    6.62494906671589
C         9.45917231546366    1.16835614649706    7.81167605208402
C        10.73037973885750    1.61280889497209    8.13243788035429
C        11.41001225496241    2.44936537125209    7.26212923490356
C        10.82460342448775    2.84521221685424    6.07405560687097
C         9.53033248426378    4.41190227064123    3.69266877933239
C         9.68188203774475    5.41544602969749    4.64696939368109
C        10.14192129403218    6.66378712576874    4.27075257510209
C        10.43088413242594    6.92549716263900    2.93977708880080
C        10.25468902867382    5.93742183478078    1.98356158006353
C         9.80250046589705    4.68421369618391    2.35500113302644
C         9.56558652077626    1.62781845028693    3.06392769955450
C         8.85623496858896    0.59811484525269    2.46033577071975
C         9.51510928445989   -0.32040654605783    1.66149712305782
C        10.88094586067953   -0.21944445102795    1.46555032508869
C        11.59305653524891    0.80420068328550    2.07153582879166
C        10.94218533841330    1.72413289725978    2.86962396210557
C         3.28745610889413    2.57709355392922    2.66524358745998
C         3.72028599347592    1.37228671487322    2.11646772321218
C         3.09150526295098    0.84887566562658    1.00237595218368
C         2.02438893049241    1.52050628916171    0.42907386486689
C         1.57911332084900    2.70947268523182    0.98196020688058
C         2.20250095612637    3.23887470166269    2.09805402554906
C         3.23072391310774    2.32051101474580    5.46733302022850
C         1.84419955168462    2.25473687508017    5.33696037835458
C         1.08545024758925    1.63105802496746    6.30810499878968
C         1.69894092363076    1.06749917595809    7.41593129918277
C         3.07442149447467    1.13584473425317    7.55097525657006
C         3.84007499451061    1.76019018473297    6.58180089468721
C         3.59847628360109    4.90209924052164    4.34987745191869
C         3.65048253964684    5.77549031841875    3.26517587514501
C         3.36196129261714    7.11570997560010    3.44162404077884
C         3.05484333757270    7.60079750471784    4.70436469431620
C         3.02899910569116    6.74153182037456    5.78997762877159
C         3.29642560000484    5.39534362912742    5.61487511913844
H         7.66901685176132    7.82327178977716    4.36359774969493
H         5.90065582597051    7.94385074514517    4.27525990152056
H         7.76085161376943    7.30110217383605    2.02753122914688
H         5.99624857269326    7.44199392018042    1.92907369642399
H         8.06364290343762    8.52450642917148    8.10059849111002
H         7.87622689152481    8.88993688129765   10.54023635644434
H         4.83238476362436    5.89923664126231   10.74455526622516
H         5.02437991718810    5.53054012971839    8.31442755030986
H         8.38558515152878    6.20802126477858   -1.69581142120686
H         8.26062815981332    5.45615217073968   -4.04989363613526
H         4.99072841526151    2.89499271762467   -3.04800891330133
H         5.11505533757085    3.64081668997625   -0.70389858720947
H         7.87605159737672    1.20655042529531    6.37253301616764
H         8.92505822038906    0.51672868834745    8.48671097805920
H        11.19266755276838    1.31106572409513    9.06064796999886
H        12.40164199244920    2.79946278479074    7.51025912292067
H        11.36191884774907    3.50875573105815    5.41079089004230
H         9.44004790093147    5.21219716184778    5.68345148532695
H        10.27531068729670    7.43292428435258    5.01802372500082
H        10.78952114175330    7.90193067838967    2.64815538620518
H        10.46693661859210    6.14227396288060    0.94466051719600
H         9.65851773610567    3.91262314091883    1.60929193850999
H         7.79017548287411    0.50445945306239    2.61792610307833
H         8.95622527017600   -1.11601104650136    1.19233955867338
H        11.39395769501626   -0.93608084061439    0.84131839935890
H        12.65963815329066    0.88660810735914    1.92033409808495
H        11.50169001313269    2.52429093340845    3.33346452969847
H         4.55044662525519    0.84471016341428    2.56821660576922
H         3.43848766926752   -0.08185423595884    0.57966398538436
H         1.53746079456479    1.11797831462500   -0.44678524244787
H         0.74142898289335    3.23181731990065    0.54267697452972
H         1.84112638978746    4.16660846353579    2.52059360596435
H         1.36021153038044    2.68948242811021    4.47366728780870
H         0.01176384475704    1.58243305301906    6.19889020208460
H         1.10348926130101    0.57573589795457    8.17089421780956
H         3.55853928498551    0.70044663527483    8.41215500520364
H         4.91512136181600    1.79812449582962    6.69887951524204
H         3.91354330881112    5.39744357854089    2.28407898793042
H         3.38083012569649    7.78628591446223    2.59379980024442
H         2.84067698921253    8.65051303817645    4.84073269749247
H         2.80464001346083    7.12063393469435    6.77577959761801
H         3.27459726860688    4.71842064318732    6.45868284524781

