38
CSD_code = POQRUL | q = 0 | S = 0 | Stoichiometry = C13H15IN4O4Pt | MND = 6
Pt        2.64465457797285    5.03036464906926   17.16311884349665
O         4.44345394389349    0.48840220269233   12.03551767104915
O         5.71837519774972    2.15713515725996   11.55524009596655
O         6.37729367627906    8.24805222018522   12.29766242965896
O         6.41653715770782    9.83284033692769   13.75515441779640
N         3.26645189235236    3.77007063607608   15.43930819672833
N         4.26889476758248    6.18514990405493   16.17261392134551
N         4.86486193840014    1.60757860207869   12.21288911588170
N         6.14693354751554    8.71271034885140   13.38998674896049
I         1.03305407342712    6.43237275134781   15.43813016004315
C         2.34267639535529    6.27953957312118   18.77673809238825
H         1.82087239672999    7.17502929234088   18.43268916474335
H         3.31575335462166    6.56524709290906   19.18565757462991
H         1.76071098040808    5.83476734593743   19.58338136628399
C         1.03605862296643    3.92168268772323   17.81559824880753
H         0.25290454703937    4.56812220201303   18.21408529170218
H         1.28981836052540    3.17453804423886   18.56755552272746
H         0.63434507773729    3.42349867735629   16.92807187036621
C         3.89590063583650    3.92557344607048   18.38678054618220
H         3.62131063390345    3.93669932375768   19.43874850599243
H         4.90378254579095    4.33414304234446   18.29015523028151
H         3.91016626621624    2.88763925651178   18.04917404799221
C         2.86932173102102    2.52725684472834   15.20099821860773
H         2.13646266164250    2.11701788419231   15.88233296689998
C         3.34576173678296    1.77175237732654   14.14569720044296
H         3.00390305520458    0.76629398510968   13.96102510725432
C         4.30062590262517    2.35696356926450   13.32224040090540
C         4.72818711179466    3.65159720275513   13.56098289836947
H         5.48383806980622    4.08083693239772   12.92273892639636
C         4.17430292819232    4.34540557817314   14.63597463851174
C         4.56282156397521    5.72798882276793   14.94441538184325
C         5.17704978218074    6.54366268629476   13.99656504805872
H         5.38117216149498    6.21155251785767   12.99139565303980
C         5.50076629422418    7.84107251721906   14.35586254581594
C         5.21681055883475    8.30429993686386   15.63468276524891
H         5.46641214327584    9.31305387364623   15.92094426331347
C         4.59548844392382    7.42758398261246   16.50490404202827
H         4.33986526497149    7.73980449581778   17.50798288026595

