69
CSD_code = POQRAO | q = 0 | S = 0 | Stoichiometry = C24H38OsP2S4 | MND = 6
Os       -0.37837077295691    0.00127121781190    6.42018194907727
P         1.28950777307531   -0.50702339080047    8.03597413001450
S        -2.08517763523366   -0.57964284734674    7.94315285202500
S        -0.44271816723449   -2.24533697730743    5.69752637060228
C         0.72527321798535   -0.60826535067601    9.79465149408001
H         1.54310542463347   -0.27390894759570   10.43835806598457
H        -0.09145247129971    0.11719124731174    9.88405326418923
C         0.24402896223063   -1.98529352765487   10.23643023546579
H        -0.20850769564428   -1.91542276778333   11.22383929165104
H         1.06812825078594   -2.69293896401556   10.28959744852818
H        -0.50424813419691   -2.37924753730407    9.55238654079823
C         2.59234526465844    0.80020878334072    8.16841140905954
H         2.88492353489318    1.06975731836989    7.14848628357743
H         2.08578272680035    1.66997871398021    8.60317341019290
C         3.83449804539032    0.45509589670620    8.97982730574596
H         3.58455743630042    0.11718944535590    9.98329446799475
H         4.45671988899871    1.34356452189662    9.07268113057312
H         4.42425614842300   -0.31695569919457    8.49274546066505
C         2.25121567941765   -2.06116348149570    7.81482251544512
H         2.92124770712051   -2.16946275511635    8.67343130267597
H         1.53009689974410   -2.88436302538374    7.83177702756522
C         3.02310554033045   -2.08949630026554    6.50167362528620
H         2.33770258755102   -2.00406588324890    5.66048363830026
H         3.56525343524984   -3.02852519158417    6.40671896168213
H         3.73567512316026   -1.27013415702488    6.44006177404208
C        -2.28342033173219   -2.29857446592737    7.74424588409454
C        -3.18682766231358   -2.97036437881822    8.57046199684453
H        -3.72893526558829   -2.39736635376665    9.30738886837761
C        -3.36957725856359   -4.32903031185333    8.44705178435427
H        -4.06764339959390   -4.83815356864962    9.09434858152209
C        -2.65500948013174   -5.04580963842436    7.48996856534647
H        -2.79760964132365   -6.11176693001331    7.39536781950840
C        -1.76655546047580   -4.39723639191428    6.66242135826433
H        -1.20533042055710   -4.93507610190599    5.91347786697502
C        -1.56746076143915   -3.02032890968634    6.77557507577554
P        -2.04553163063873    0.50449785950375    4.80170950922657
C        -1.47909761791938    0.58032512377508    3.04234437777098
H        -2.29742612068630    0.23999827094527    2.40242454671729
H        -0.66485066857378   -0.14916050736083    2.96354538290593
C        -0.99265277853679    1.94936865093188    2.58188408826575
H        -0.54190203755180    1.86436572410672    1.59484316462841
H        -1.81375158814484    2.65982979128247    2.52047499880037
H        -0.24168708877446    2.34903545644087    3.25957258771138
C        -3.35951106266332   -0.79290890276927    4.68310434198106
H        -3.65643164280504   -1.04676292459986    5.70575763693773
H        -2.86016477361605   -1.67266796783482    4.26028683433980
C        -4.59697310351903   -0.44692736663121    3.86486409504732
H        -4.34209505891100   -0.12258786416421    2.85817285700889
H        -5.22634735097661   -1.33121731959340    3.78076493939054
H        -5.18143694603761    0.33552093284273    4.34159951663446
C        -2.99537592394509    2.06817177422451    5.00612592646064
H        -3.66299213897927    2.17441438806800    4.14541158470933
H        -2.26785694791977    2.88561085500562    4.98354275559769
C        -3.76935755834920    2.11278250147442    6.31765100615760
H        -3.08679809478887    2.02265695445645    7.16071078333167
H        -4.29972028754045    3.05905488643866    6.40697724514019
H        -4.49242525686164    1.30289460602938    6.38172735139016
S         1.32740280233189    0.58387960283884    4.89756548461125
C         1.52089271436265    2.30355857959194    5.09430296635880
C         2.42139262961469    2.97687631680368    4.26619635184874
H         2.96436841847187    2.40447807033108    3.52942916781231
C         2.60040242211279    4.33617917426288    4.38781871126525
H         3.29617350952297    4.84655394542273    3.73904150586987
C         1.88507082837313    5.05202646330877    5.34504948261359
H         2.02475155063384    6.11850243293659    5.43816278390495
C         0.99963735427465    4.40192958371161    6.17461528631575
H         0.43792631263748    4.93908304316598    6.92368441388400
C         0.80423896919612    3.02430697807731    6.06320663690844
S        -0.31645092221003    2.24702759690171    7.14358392216835

