69
CSD_code = POQSOD | q = 0 | S = 0 | Stoichiometry = C31H28N3O5PZn | MND = 5
Zn       -1.47746004602242    1.18972304561071    3.28792211761878
N        -1.42179883377529    2.87958446562313    4.52236350030609
N        -0.58242070681208    0.38758270473920    1.56715661837439
N         0.59331150264343    1.28805213884368    3.86990350142889
O        -1.94547264824526   -0.19495323945445    4.32761886048407
O        -0.60560861456041    3.21017982841944    1.50447683967949
C        -0.25258001813459    3.50259117945537    4.45867440459319
C        -0.11841471399379    4.83962979961311    4.81568251711294
H         0.84309596984817    5.32415547152589    4.74025189731568
C        -1.23548847140362    5.53171630398191    5.24562340752525
H        -1.16170600603212    6.57469566717285    5.51680850407197
C        -2.45037914328593    4.86555372964624    5.32139326800561
H        -3.34518533401035    5.36844728298718    5.65114215512329
C        -2.49479786435438    3.53719559114056    4.94220815307392
H        -3.41147396903877    2.96584729007839    4.96785747376742
C         0.72737630456857    0.61851324329545    1.53902008407737
C         1.40810525236511    0.84391621746835    0.35222818775304
H         2.46748649096586    1.05064792191678    0.36451586685681
C         0.69993319578523    0.82751076965160   -0.83724963252969
H         1.19590048153989    1.03296640866345   -1.77421596005623
C        -0.65591902006040    0.54752808399915   -0.80221432772037
H        -1.23899971120932    0.51364181103654   -1.70814319152220
C        -1.25659004002827    0.34017951173084    0.42749676252290
H        -2.31317840553595    0.13385993163795    0.51355075319535
C         0.23181971080545   -0.77232967860822    5.16902455683547
C         1.08726242575032   -1.77749506445464    5.59769461124398
H         2.08370629014851   -1.51123118815914    5.92878650260563
C         0.69370111027728   -3.10208943706887    5.62208574057791
H         1.37532590387370   -3.86713826487638    5.96184762716561
C        -0.58872314352059   -3.42889625905681    5.20819873195730
H        -0.91300008676095   -4.45984830831619    5.22522081647420
C        -1.45118258574188   -2.44792136550753    4.77249208479489
H        -2.45020420602930   -2.69340157556546    4.44665039920429
C        -1.07306059625715   -1.09422578280632    4.73234322248752
C         0.90914699315654    2.70623809882240    3.93762422087870
H         1.80701015539551    2.89307337574377    4.54802355453522
H         1.08682963594138    3.06498099930779    2.91958268232907
C         1.40712851246619    0.59355443899454    2.87878112236080
H         1.47453740817470   -0.45619179173051    3.19137645139290
H         2.42135543325247    1.00841872391478    2.81461472287629
C         0.68819127346404    0.66010159788653    5.19497736697778
H         0.04356461231406    1.22965421634003    5.87076144054567
H         1.72319066127095    0.72009449070395    5.56770778708345
P        -2.07916937994703    3.19177651445584    1.49522483780319
O        -2.71348318550509    3.06928266894990    0.00276021872063
O        -2.56012770898253    4.65640080212486    2.01602759573302
O        -2.79194419612490    2.10710640767827    2.25831210507338
C        -2.14313772714042    3.63276746906836   -1.10082183321251
C        -1.27218571506615    4.70909338387185   -1.03467792406758
H        -1.02166877769589    5.11937620315322   -0.07020242344412
C        -0.73355969969612    5.22739434144414   -2.19968051877034
H        -0.05180954789873    6.06316970846005   -2.14282714200957
C        -1.06522747516607    4.68724180952169   -3.43006441256944
H        -0.64241753664562    5.09667401003525   -4.33525231776824
C        -1.94859747518843    3.62223498165475   -3.49460317272133
H        -2.21974512785515    3.20006813093826   -4.45120325931776
C        -2.48687194419074    3.09301779758890   -2.33688389987995
H        -3.18130853318276    2.26731486430513   -2.36944136991427
C        -3.85297829493373    5.02410045623532    2.26345492522434
C        -4.04808018616806    6.28693027834849    2.81487181689891
H        -3.18749064843440    6.90813835800164    3.01148083167498
C        -5.32865864319055    6.72521525274039    3.09554747206042
H        -5.47507390157974    7.70642179822406    3.52307591580200
C        -6.41824661851542    5.91242515352886    2.82969055964345
H        -7.41747094081878    6.25585323947284    3.05167591389639
C        -6.21862077591902    4.66015868481229    2.27475557059724
H        -7.06400863049713    4.02309146731690    2.06141308842641
C        -4.94104319047695    4.21163188615012    1.98704803034532
H        -4.77260929827676    3.23610194757639    1.56145398835895

