75
CSD_code = POQWOI | q = 0 | S = 0 | Stoichiometry = C26H36Cl4N4O4Pt | MND = 6
Pt        8.06142851710884    5.26902447953107    0.00014627709671
Cl        9.09164313553166    6.93740763327778    1.32336908444729
Cl        6.97682001706605    3.61061230952875   -1.29152929580872
O         4.33623856992938    4.52919257620455    2.87142498328382
N         6.50324220929020    5.21816754227816    1.26623747098121
H         6.63012922008888    4.83595402253005    2.20419704694721
N         4.20897181704271    5.11508669595873    1.60205869198435
C         5.28215772597442    5.36541595408458    0.88071118219720
H         5.08445680195353    5.75956407326437   -0.11227449616243
C         3.02209593442624    4.42650770576149    3.43040591233176
C         2.10725903450221    4.31615539331015    2.19855022165498
H         1.10387155303488    4.68119238071034    2.39969561993709
H         2.04809079456959    3.27905351365495    1.86598083559317
C         3.00049492468687    3.17475257463952    4.29925938060779
H         3.69222085765387    3.29020632224902    5.12870631628586
H         3.30453705511889    2.30938099053957    3.71647478010181
H         1.99991235189491    3.01171123029721    4.68862013376764
C         2.71043862607559    5.67710785862111    4.25537634759265
H         3.45652767834843    5.79317243221844    5.03714940786152
H         1.73015376846629    5.58769077991297    4.71474181956173
H         2.72937228783481    6.56670243846673    3.63033846972340
C         2.82999536874094    5.15812608248763    1.13860638794495
H         2.47955295857914    6.19895348162301    1.16693515342986
C         2.70572105095719    4.62105982001501   -0.26337800637760
C         3.31697041045924    3.42025122608801   -0.61822692631565
H         3.89609568061730    2.86938491407167    0.10754176175067
C         3.21726440754020    2.93734476331771   -1.90156869837066
H         3.70578592149433    2.02098025236849   -2.18830757035114
C         2.49731592803410    3.64197135525693   -2.87046682375586
C         1.88403720155902    4.83990183662786   -2.51890396048902
H         1.32727038722013    5.41504483119185   -3.24122329273796
C         1.99673441548806    5.31999616949486   -1.22537804383183
H         1.52418261807928    6.25768702793991   -0.97000416901787
O         2.45229502546549    3.07824117856156   -4.10266010232235
C         1.79751709542985    3.76894965292680   -5.13941543477612
H         1.92090363324165    3.15186330566191   -6.02791566227783
H         2.24912708415901    4.75011817642351   -5.31527027857410
H         0.72938255985656    3.89037941572038   -4.93006522325666
Cl        7.03106440101058    6.93715327138938   -1.32353761749584
Cl        9.14688817076549    3.61126299030217    1.29208185859869
O        11.78661815331589    4.52858906360809   -2.87125274009805
N         9.61958905778221    5.21813958072760   -1.26595740012368
H         9.49245271466374    4.83560892863736   -2.20374773151755
N        11.91386432853379    5.11448700570707   -1.60191924535239
C        10.84073346587923    5.36549953465251   -0.88070129673586
H        11.03856805235344    5.76031223254498    0.11197772068477
C        13.10075409987730    4.42637082282248   -3.43036170513365
C        14.01571966000702    4.31623444820872   -2.19858346343521
H        15.01902018244558    4.68147720291230   -2.39979315020529
H        14.07511927536697    3.27915566020472   -1.86596849452990
C        13.12268810379293    3.17467953238152   -4.29927638001981
H        12.43088667365398    3.28998287427320   -5.12867596471680
H        12.81893500906895    2.30916941392559   -3.71654668659662
H        14.12329595451765    3.01197548052115   -4.68871120552424
C        13.41206089691104    5.67708833648227   -4.25530370277508
H        12.66590016891836    5.79304014806113   -5.03702421260680
H        14.39234722612005    5.58791372317595   -4.71473685053039
H        13.39297341522922    6.56663967844552   -3.63021577447015
C        13.29285539737539    5.15805442735045   -1.13862335225853
H        13.64300423772992    6.19898708628187   -1.16699531665936
C        13.41731034245559    4.62100095584885    0.26334175953562
C        12.80630163059679    3.42005202754196    0.61813175111644
H        12.22730443217504    2.86911684218533   -0.10768539387547
C        12.90612068845567    2.93708086503768    1.90143688517561
H        12.41782396584108    2.02057444710880    2.18810974312185
C        13.62592750935011    3.64181534924784    2.87036473716906
C        14.23893713841269    4.83990400978222    2.51886264529807
H        14.79557569630491    5.41513230128456    3.24121095809355
C        14.12614203872278    5.32004887292057    1.22536505262093
H        14.59843848168702    6.25788587929725    0.97005107954086
O        13.67111239495003    3.07802762133931    4.10252407863322
C        14.32573353011487    3.76885656668750    5.13929922062450
H        14.20240116959807    3.15176995424701    6.02780553623648
H        13.87395670384573    4.74995459635178    5.31511760162673
H        15.39386100455149    3.89044587171528    4.92999775590403

