116
CSD_code = POQWIB | q = 0 | S = 0 | Stoichiometry = C62H45AgN5P3 | MND = 4
Ag        2.59454686726129    2.65005928269879    4.33013728996760
P         1.41161067398537    4.24060839960065    2.65815581189437
C        -0.07693880643781    4.92089395280061    3.46261870733982
C        -1.28335993997034    5.11517369889340    2.79844378183764
H        -1.38379961882313    4.83510407979708    1.76006498542520
C        -2.36364602170609    5.64769652921106    3.47976876939617
H        -3.30272268358955    5.78705072525377    2.96450083153837
C        -2.25300893012112    5.98022075592656    4.82176917388432
H        -3.10397787439477    6.38068792136445    5.35230668292828
C        -1.05593739987025    5.77806214128337    5.49042711166318
H        -0.97017679170286    6.01614519396300    6.54050265406798
C         0.02721829036778    5.25058179547139    4.81161379968606
H         0.96427626134373    5.08133896339447    5.33392200155912
C         2.09242890184511    5.71942222154431    1.83623701169522
C         1.86237707222894    7.00319513672314    2.31873342535531
H         1.18467048221391    7.15534262243248    3.14787548266313
C         2.49047652717605    8.08694384235920    1.73031412042142
H         2.29737425653219    9.08292575241777    2.10226324845615
C         3.36141479429088    7.89887960074215    0.66988352279806
H         3.85166144047927    8.74711187637352    0.21533803876439
C         3.60022083641991    6.62020539037270    0.19037413676315
H         4.27620252018149    6.47038310332129   -0.63908335032965
C         2.97271748624054    5.53555814192658    0.77114445530558
H         3.14344902394207    4.53650563678852    0.39032079581188
C         0.74361782730589    3.30254922946840    1.25135862536982
C         0.63150939840542    1.92525575339696    1.40249128202084
H         0.95184698626528    1.46295377069408    2.33137662005661
C         0.10151913598490    1.15313115396285    0.38689269827981
H        -0.00308420760348    0.08790739146706    0.52073709791668
C        -0.30737323438186    1.75129820806784   -0.79185402974338
H        -0.72437441325996    1.15090364259899   -1.58649433666087
C        -0.19033446922890    3.12265100484201   -0.95215097221293
H        -0.51511818432194    3.59031896292836   -1.87044246079548
C         0.32909581712657    3.90152061612675    0.06447194083114
H         0.41485286701701    4.97243998373896   -0.06354372033299
P         3.94344736647374    3.85437919714864    6.16179634178686
C         5.03563341498102    5.16437790295593    5.51649853364413
C         6.38931054005555    5.28142718377533    5.80527856671423
H         6.87257538819605    4.56386013379493    6.45262448434649
C         7.11966504050809    6.32618457575352    5.26605378115009
H         8.17177936900960    6.41413648483492    5.49460363880092
C         6.50901850112706    7.25936190610379    4.44544951033844
H         7.08508675252115    8.07409623666686    4.03219029872441
C         5.15843065086243    7.14617782098073    4.15362273806573
H         4.67560345027660    7.86673941255691    3.50954439487224
C         4.42893509958780    6.10048937726295    4.68223632629498
H         3.37369825565271    6.00246695682123    4.45261149150658
C         5.07690786177957    2.81302250198653    7.13324159013366
C         4.94508172801760    2.62407352392644    8.50396211497413
H         4.17866177580909    3.15262991256841    9.05266536010711
C         5.79658563287002    1.75463679335155    9.16381772619522
H         5.69217583380699    1.61197503690759   10.22927642880044
C         6.77515080647289    1.06708199107312    8.46564486549776
H         7.43447316908083    0.38843942844460    8.98595290248204
C         6.90411782362929    1.24565783817229    7.09676728318850
H         7.66051485046337    0.70544481565166    6.54605732019877
C         6.05515768907698    2.10857703021924    6.43288596514352
H         6.14381440129910    2.24735699237276    5.36218533329048
C         3.03301001784602    4.76158957194753    7.45262620885417
C         1.80321663852455    4.24639976211283    7.85423223085494
H         1.43162912775314    3.33570676838746    7.39942392548453
C         1.05881501652410    4.88934557076453    8.82625515901982
H         0.10218333992119    4.48256009426997    9.11936227366045
C         1.54118584627410    6.05499044049980    9.39961518248892
H         0.95970215072309    6.56439310874864   10.15327805236857
C         2.76683705158697    6.56981702130636    9.00628747722843
H         3.14221330705862    7.47723933858213    9.45684776023668
C         3.51539678822944    5.92971253850182    8.03511495294235
H         4.46944964227692    6.33517761162660    7.72780598799338
P         4.32187598677450    1.34538829170762    2.98631225873933
C         5.02225785271050   -0.19442145975632    3.65466545227560
C         4.74917805467532   -0.50462431195979    4.98220447463668
H         4.10596480927606    0.15117288181923    5.55938800657571
C         5.28494265025351   -1.64376843166362    5.55528858446503
H         5.07309585167957   -1.87742619601520    6.58794884492290
C         6.08739204715140   -2.48290277763415    4.80042983387880
H         6.50595731606406   -3.37377680056964    5.24454382972416
C         6.34604743740646   -2.18852559408328    3.46998974146353
H         6.96297435659811   -2.85097723800762    2.88040304244649
C         5.81675003313780   -1.04907257732953    2.89361569264994
H         6.00835923430948   -0.82271880335141    1.85312053957249
C         3.91512335780712    0.85955244857081    1.27751286907635
C         4.18098135707046    1.67407800944719    0.18314249149111
H         4.74287442531949    2.58889589519122    0.31267934231624
C         3.74002179666794    1.30619630663505   -1.07548589732129
H         3.94872321757532    1.94320476367218   -1.92272995029298
C         3.03694173599479    0.12707155385464   -1.25218803488464
H         2.69636827691483   -0.15636557633747   -2.23654428725727
C         2.76930830045553   -0.68764533514938   -0.16347465995889
H         2.22304737330901   -1.60935797227668   -0.29917177917367
C         3.19292615648179   -0.31849941200109    1.09789059300795
H         2.96868215824556   -0.94145606014920    1.95423693802033
C         5.78677528883346    2.40623247381558    2.73704823306553
C         7.10226378994552    1.97368219084888    2.85892576720189
H         7.31643416486288    0.94585606848750    3.11503811043618
C         8.14212010549817    2.86661360182382    2.66646632354424
H         9.16221652121581    2.52645895721110    2.76941169765855
C         7.88252717070591    4.18722389534311    2.33948329091376
H         8.69921307065483    4.87569627270566    2.18259724574584
C         6.57369101817882    4.62556626263158    2.22327297789720
H         6.36021793564956    5.65459644602065    1.97542221488654
C         5.53351253753165    3.74356663120135    2.44067206407788
H         4.50826268115661    4.09140737550035    2.38547653238072
N         0.79123133643205    1.71268671236908    5.19354499206909
C        -0.28025358469259    2.06354282590048    5.47730330337978
C        -1.52438290511773    2.50709719707560    5.86472352773654
C        -1.62491435729368    2.88751539865038    7.20790271259851
N        -1.62496522125566    3.17870575024052    8.32079989613055
C        -2.56657066768499    2.62686081269880    4.92005608952388
C        -2.27171821694618    2.16509982067890    3.61447930521477
N        -2.01204288967026    1.78406256865750    2.56449306127528
C        -3.82551470911771    3.16919628316242    5.13283918852787
C        -4.74230157613929    3.25283281531339    4.07351298380012
N        -5.49247707883022    3.34220763026472    3.20695214720048
C        -4.25286659685441    3.72333432090327    6.34721145985021
N        -4.65535082185385    4.21548472133713    7.30499751070219

