75
CSD_code = POQZIF | q = 0 | S = 0 | Stoichiometry = C33H38IOPPt | MND = 5
Pt        4.39867534720783    3.82542166811759    0.15128230772043
I         6.99174729670225    3.28626147288747    0.13563308855382
P         4.43453068252405    4.68440501382565    2.25096779686272
C         2.41195732754375    3.95918767575668   -0.33108684903712
C         2.26980493777785    2.47072081534985   -0.70062958861945
C         3.67112288120959    2.34992864821780   -1.29056168900642
C         3.92361950574144    3.53984806791297   -1.95715000586911
C         2.68053144150661    4.41406135918543   -1.77725465965135
C         1.28289096498724    4.59237739678589    0.44634288781970
H         1.44173301157070    5.65965155075344    0.58277206358661
H         1.19449312764614    4.13502683131622    1.43084573567154
H         0.33466700596313    4.45645131083638   -0.07813781406299
C         1.94353471039874    1.50396881953172    0.42346688702775
H         1.99593630848778    0.47228482588432    0.08130127525062
H         0.94527263714960    1.69168046805012    0.81527502129919
H         2.65725886154159    1.62897273740217    1.23947466736429
C         4.40709866363175    1.05460866522542   -1.41687080040918
H         3.90543725901033    0.42833691276106   -2.15455098045925
H         4.42639498036161    0.51845284662466   -0.46752522301925
H         5.43155888946219    1.21135295091813   -1.74711048251116
C         4.94249996304118    3.78747510304657   -3.02103070823067
H         5.77382417453456    3.09015991302216   -2.94929198595161
H         5.33520252737825    4.80283614795723   -2.96899743370103
H         4.46642569254977    3.65558289608140   -3.99395095244119
C         2.89362870435047    5.89470135872571   -2.04070902433571
H         2.03179580424486    6.46985130815529   -1.70721987523819
H         3.03373695436590    6.07246685914381   -3.10543002338279
H         3.78163518506233    6.25080901194297   -1.51346409306812
C         1.22054035311095    2.47622457264309   -1.87400157580910
H         0.22331305687959    2.49164279272069   -1.42658781214815
C         1.34999780028674    1.26572545630493   -2.76425413966957
O         2.15227726145730    1.20457243291502   -3.66536725381049
C         0.38252625478815    0.13983078962409   -2.45993849689352
H         0.28245018755968    0.02271633127303   -1.37964958820854
H        -0.59202271779755    0.46160513359983   -2.84150128641871
C         0.78976080975546   -1.17130850982073   -3.11870665539193
H         0.93581231727597   -1.02093627744912   -4.18525641798050
H         0.02529931215487   -1.92965688670724   -2.96970802297124
H         1.72568528517190   -1.53211374574587   -2.69783506964610
C         1.53937802409203    3.78623354361961   -2.60664649244331
H         0.67609170328278    4.45180121026308   -2.63384829790308
H         1.86427541177009    3.59361601241458   -3.63003121007394
C         3.66328279386221    3.38133539514367    3.25076347707208
C         2.41950526857635    3.48748046004060    3.86131046208608
H         1.88182950238009    4.42494263652641    3.83668774754364
C         1.87037365311863    2.38935328225046    4.50174341591075
H         0.90486485676093    2.47689354923880    4.97872210395624
C         2.54945576835918    1.18278478066842    4.52947074987314
H         2.11536006065203    0.33094221508707    5.03147581169244
C         3.78291488741742    1.06581795863328    3.90625577262838
H         4.30949705066624    0.12296727492961    3.91783820603372
C         4.33426843249214    2.15639907735658    3.26134191304521
H         5.29299787378639    2.07335321465581    2.76261867077686
C         6.00404243611853    5.03927443646132    3.10755673440914
C         6.82945321693744    5.97713002065727    2.49285098927344
H         6.52893147637717    6.39997867295408    1.54161576034722
C         8.02561172049410    6.34001810200605    3.07742073425181
H         8.66951733474600    7.05665730581907    2.59054531495420
C         8.40262516799786    5.77045316355369    4.28377141463176
H         9.34236382021301    6.04490938924322    4.73918877092475
C         7.57997002195837    4.84511105052832    4.90182507754053
H         7.87489213145364    4.40061864041332    5.84125444068833
C         6.37860029711724    4.47751688597398    4.31981053746554
H         5.74358870162744    3.74986621399772    4.80571444795176
C         3.59101824372674    6.23792211852887    2.68558915800106
C         3.36192130714051    6.58100365777215    4.01431736600129
H         3.64377598799763    5.89620191058849    4.80264489408243
C         2.78574042351823    7.79953558584805    4.32008777652181
H         2.60012164861154    8.06235764979370    5.35123258291739
C         2.45545357858467    8.68860015921897    3.30853825609056
H         2.00541828202126    9.63933811784641    3.55325788648291
C         2.71497794798683    8.36523493343215    1.98748655612159
H         2.47551852826770    9.06534326309572    1.20035134979990
C         3.28564692316910    7.14343838660453    1.67848525180890
H         3.50736075009579    6.87788500005876    0.65306914634094

