30
CSD_code = POQZIE | q = 0 | S = 0 | Stoichiometry = C13H12N2NiO2 | MND = 4
Ni        0.81431665318787    3.69035144521868    8.03581316500682
N         1.42113547240340    5.41704426855920    7.48292700379968
N        -0.47711829102514    4.72328235344499    9.12539281618043
C         2.06376159723596    2.57801668477556    7.07356996425938
O         0.16754230992149    2.10291077570750    8.62076870298812
O         0.16105029200427   -0.10603903521318    8.56608517670614
C         2.01272037566810    1.11815380764644    7.56124166236162
C         0.68189520300737    0.95243498446477    8.29192862804094
C         2.32414372550335    5.72561895601600    6.55100478266769
C         2.64477981450093    7.02321502107145    6.19534903623680
C         1.99989443100243    8.07239624815685    6.83261961956910
C         1.05281115701749    7.76893973243055    7.79188813703684
C         0.77818867388207    6.43850857545130    8.09957503206378
C        -0.24022666830519    6.04543590207895    9.08172468203176
C        -0.93199608163523    6.92960736516954    9.90759745624594
C        -1.88620361371835    6.42916967254310   10.77638408884917
C        -2.12469414158926    5.06349974445615   10.80211980867025
C        -1.38989558233951    4.24425727237139    9.95855303691375
H         3.10235482946641    2.94406138635747    7.09024256108508
H         1.68079482116798    2.62418811951917    6.03460214567338
H         2.10693027977089    0.39857731168677    6.74457896063403
H         2.80709727391730    0.91822581159236    8.28340143197995
H         2.81991307261595    4.89977645622149    6.06166906915045
H         3.38614894634165    7.20451976515443    5.43406710128480
H         2.22436974031665    9.09833978278546    6.58495504106172
H         0.52248346205638    8.56144715036435    8.29387621716177
H        -0.72760572755717    7.98772711442619    9.88384287592289
H        -2.43345847748420    7.09728921188555   11.42452143057950
H        -2.86188498413061    4.63928986556306   11.46441554520252
H        -1.52404856320422    3.16965425009465    9.94168482063654

