30
CSD_code = POQZOK | q = 0 | S = 0 | Stoichiometry = C13H12N2NiO2 | MND = 4
Ni        7.23875378709536    2.70634596238940   14.11407815844059
O         8.71816726167921    2.65236971618521   15.15907759770946
O        10.91621102089223    2.58603517177852   15.37544480741748
N         5.61717205929566    2.76085566889763   13.10374458568194
N         6.02099564587562    2.62580847602578   15.67345695714175
C         8.52281734362186    2.86001725015317   12.68233650172159
H         8.51256591768839    1.84505255137233   12.23724703524880
H         8.25206824258512    3.59494447907265   11.90806487379746
C         9.93520894327737    3.15666946081650   13.21927504039552
H        10.71423227504731    2.62252870658294   12.67004755574653
H        10.15707899494565    4.22488834343067   13.17058582937520
C         9.92987904426683    2.75987587941978   14.69432540491298
C         5.45465763340715    2.70296157322815   11.78112955397051
H         6.35279961422641    2.66889236013343   11.18152465853152
C         4.21801493180650    2.68653929148386   11.16177396541875
H         4.15581042226466    2.64009018020854   10.08657148830826
C         3.07455949750514    2.73086981856177   11.94497344067850
H         2.09208692414476    2.72153486284233   11.49895673309640
C         3.22617678468515    2.77975959274073   13.31754907941415
H         2.35735088653062    2.79786823036713   13.95489867965711
C         4.50275841291606    2.79247492714282   13.87444103374676
C         4.73554735369587    2.80483091397779   15.32415458895963
C         3.74277374741819    2.97347524175603   16.28753819009932
H         2.71613068497666    3.13931375373950   16.00386934499054
C         4.09410015670683    2.93959786744490   17.62589604379335
H         3.34039510590133    3.06856946122041   18.38825813978452
C         5.42278674513675    2.74139164818289   17.96932099218997
H         5.73188463746712    2.70592244242390   19.00143476101149
C         6.35704875730789    2.59438537771777   16.95525690885743
H         7.41036716763196    2.45003079070291   17.16186804990226

