39
CSD_code = PORBOO | q = 0 | S = 0 | Stoichiometry = C16H6F12N2O2Pd | MND = 4
Pd       17.58744846351800   10.42988954295470    9.32715221027385
F        11.80326720451001   10.78058309354592    9.10626073957881
F        11.57709906860686    9.85325849014515    7.17751326274036
F        12.08493551928253    8.66482683617900    8.89831029905511
F        17.56742818893280   11.84238462888875    6.86544580617841
F        16.31993563672016   11.80407483161194    5.08819060646913
F        17.56714838527803   10.12249551139544    5.54921631197458
F        22.12481099913964   12.05455893374435   11.14383477928031
F        20.67833271468132   11.33820724922763   12.57106490253512
F        22.15150539198810    9.99387298840608   11.75947285154040
F        22.01728812563909    8.64886297936548    7.11062295718508
F        21.56064969006261   10.51609166418217    6.14807494831418
F        20.26158710060041    8.81687292277817    5.88156212522929
O        19.15465614417471   10.71241384046103   10.60748740570889
O        18.95801816046079    9.90300356298355    7.88237312097954
N        16.20914064549121   10.47896115651535   10.75846846101316
N        15.97469849489348   10.31615758578005    8.25051571319262
C        16.47445888388501   10.63046685139993   12.05414069652856
H        17.48485105581392   10.92826160831389   12.31290414479350
C        15.51540535523266   10.42895398314425   13.03058439270736
H        15.76608356242029   10.57132345194609   14.06872762306157
C        14.23900411430754   10.03643573455494   12.64512515379244
H        13.47353503950631    9.85929958349948   13.38424818468839
C        13.95847241993567    9.87377020336210   11.30250791998390
H        12.97985067846093    9.56304698743005   10.98079218987282
C        14.96265454845977   10.10783112972881   10.36176241411388
C        14.82380667178763   10.07274389123328    8.92691896147904
C        13.76478405602758   10.06456115819596    8.00356222560941
C        14.31234882268848   10.35195171548488    6.74798121059335
H        13.78265994032686   10.44260121226774    5.82172967980849
C        15.67703875441726   10.50769424981175    6.95398096359357
C        12.32466170941689    9.84310662716534    8.28245523468817
C        16.76232091304699   11.04095124712782    6.08746210928442
C        21.34092656984009   11.01696259803758   11.45842580242799
C        20.37219248412377   10.65955391918766   10.31143958251960
C        20.96837210808994   10.29631689695635    9.10899353612443
H        22.04311266159826   10.27946846851217    9.03722320309308
C        20.19839373353081    9.91675151639559    8.00443524217025
C        21.00811598325616    9.46403114808256    6.76663302775334

