42
CSD_code = PORCIK | q = 0 | S = 0 | Stoichiometry = C19H14F5NOPtS | MND = 4
Pt        3.77238288523485    2.54878009473174    0.96637890191935
S         2.13809875525063    2.23296702538153   -0.75473056232725
N         5.38887860722324    1.71432093608440    0.00685168697364
O         2.52916333219703    1.76099923915766   -2.08340080955087
C         5.40194222695427    1.25357632752720   -1.23898107154521
H         4.48617007190615    1.33739779140375   -1.81006605561917
C         6.52497494279164    0.68463782805272   -1.81610506149619
H         6.48384787072249    0.32573990838958   -2.83144423989737
C         7.68399871626015    0.59056454769741   -1.06225457805837
H         8.57856346565531    0.14978603663735   -1.47585294293284
C         7.67509281919089    1.07599176945879    0.23154653067147
H         8.56492845350189    1.01746393997133    0.83598106094964
C         7.44801840360085    2.24459172404673    3.00958710774039
H         8.41562318775391    1.84209788999675    2.75074903747246
C         7.26469891910619    2.80682789917084    4.25734248811281
H         8.08340669447907    2.83837049494078    4.96056568747988
C         6.03029376846251    3.33137733978293    4.60058081785972
H         5.88617656962698    3.77495126276675    5.57470425339700
C         4.97517496972850    3.29150870503518    3.70072556510298
H         4.02571311227280    3.71057309347778    4.00096235454539
C         5.12754485905530    2.72848345213916    2.43790637897196
C         6.39396022932897    2.20192549018352    2.09827671453075
C         6.51305726750764    1.64198536841281    0.75380089155498
C         2.30694547845001    3.41446316946712    2.04414069754375
C         2.04722926408898    4.77456719898554    1.90686225911245
C         1.06811809133220    5.44583787777780    2.62627817121870
C         0.29745190749792    4.73464906475671    3.54158999834375
C         0.51687855777601    3.37121985445816    3.71199922296378
C         1.51057401619674    2.74657378575431    2.96873878397105
C         0.92518060948997    3.56751879239446   -1.05339133941344
H         1.47153677013628    4.45529144332927   -1.35467393870562
H         0.37153782229327    3.76089264160650   -0.14238138319165
H         0.26897593084620    3.24774537053252   -1.85460207435258
C         0.95331323950012    0.99321144627224   -0.12601848119860
H         1.51699987112282    0.11441442332304    0.17287749971138
H         0.26402587901321    0.73702898405648   -0.92259441335315
H         0.42940155878997    1.40105250517420    0.72974171299190
F         2.77983598169127    5.45612014790534    0.99528787163334
F         0.84798048026260    6.75595430542499    2.44495473577289
F        -0.65812746561780    5.35636417182994    4.24531178315570
F        -0.23643746658714    2.67873575242369    4.57907837475265
F         1.70506934586460    1.41794090009722    3.12677636318624

