82
CSD_code = PORHOU | q = 0 | S = 0 | Stoichiometry = C31H44ClN2O3V | MND = 5
C        10.72895547027232    0.37242174857254    4.17732898566785
C        11.91697898330696    0.45177363247312    4.93684998430323
C        12.68593751195007   -0.68977976498920    5.06333333434562
H        13.59217229727220   -0.63645874820296    5.64031365350664
C        12.35127022534446   -1.90998261876089    4.47658224626919
C        11.19285569949044   -1.97426298435266    3.72254660069285
H        10.91017458546308   -2.89618618459506    3.24625751430001
C        10.38468862361291   -0.85281210401233    3.56631081607874
C        12.30746082643478    1.78635859022982    5.55680097612178
C        11.19310857999626    2.25720115028278    6.50172349480569
H        11.49352792509283    3.17565654023385    7.00088378502216
H        10.99197161572542    1.50010834424513    7.25875606768399
H        10.27419620552548    2.46250263741320    5.95587968658865
C        13.60644525425269    1.69683409141280    6.36500373435474
H        14.44317409422155    1.39990205045318    5.73681519189905
H        13.50880236448390    0.99615670621348    7.19164629561968
H        13.83410292750722    2.67566994283509    6.78113258134913
C        12.51304414024992    2.81410909943037    4.43314007921865
H        13.31144894125918    2.48834608066243    3.76842030068914
H        12.78663074553986    3.77645781747291    4.86029806050821
H        11.60691904938374    2.94991480390849    3.84058823930993
C        13.26672013169525   -3.10768256607322    4.68211618049500
C        14.66369194656790   -2.77134770607287    4.14197730260190
H        15.32502217255491   -3.62770082860146    4.25489310632591
H        15.10268547098223   -1.93158437229248    4.67215484332183
H        14.60631606245105   -2.51481868227610    3.08652393182822
C        13.35116998042420   -3.42175542668745    6.18262695376322
H        12.36204173946970   -3.64657175717031    6.57599388387489
H        13.75574103840967   -2.58217396337527    6.74003255632753
H        13.99375976943838   -4.28344509744861    6.34970207218296
C        12.77044102736368   -4.36402150111677    3.96048167995372
H        11.79169868822009   -4.66695139665734    4.32576236803067
H        13.46280211313904   -5.18278597653413    4.14420262510617
H        12.72013672710455   -4.20399894171444    2.88585601788678
C         8.40398506789937    0.11467610331112    2.52434473549827
C         8.73122366536211   -2.16631839886866    2.23129865874927
H         8.58487898971664   -2.90906544931053    3.02051649644270
H         9.46160308873162   -2.54770183895725    1.51248661082536
C         7.42206637660243   -1.75725603480793    1.56017195479782
H         7.43632426929416   -1.93635802813443    0.48184352698249
H         6.55338608110852   -2.26056310014618    1.99516575724215
C         6.27629244260638    1.83842426540280    1.66936230865790
C         5.23556689130408    2.64592778298186    1.16489779994384
C         4.23822635408642    2.04230936311195    0.41644243941132
H         3.44500723224956    2.65869112490047    0.03740085963983
C         4.21922426866073    0.68063251761990    0.13328223603429
C         5.26525946039673   -0.09895814661432    0.60537702913242
H         5.28298828649163   -1.15324205096777    0.38430344949628
C         6.28869389051264    0.45904742835933    1.35858560990820
C         5.25955353632200    4.14148724742705    1.45042815088922
C         4.07011067059835    4.87592173417645    0.82201940247601
H         4.06515659590569    4.76630874610280   -0.26004017088718
H         4.14853971926826    5.93674721608526    1.04921092211127
H         3.12577400940349    4.51691671316999    1.22550573441540
C         6.54966812958121    4.74102381200234    0.86914032501049
H         7.43965645549570    4.29360190176203    1.31436412185474
H         6.57672968482081    5.81125929649853    1.06195189199268
H         6.58613423728999    4.58057238520769   -0.20721230634998
C         5.21132371767986    4.37005132600334    2.96737889753831
H         4.33136681281529    3.89189027263793    3.39594946119512
H         5.16547931580448    5.43552541497556    3.18077251544957
H         6.09970648912064    3.97244138133345    3.45428387918015
C         3.10704836937588    0.02046410261197   -0.66954164877531
C         3.70691677284434   -0.63881918431817   -1.91956158484217
H         4.41429269684346   -1.42094760245612   -1.65824385130499
H         4.22610978295123    0.10339129393068   -2.52155293686820
H         2.91850848843197   -1.08354985757464   -2.52288057604455
C         2.03726393115498    1.01551012457440   -1.12651582168849
H         1.26943471471801    0.48769748778075   -1.68850553151960
H         2.46307464135515    1.77692718232275   -1.77513712173581
H         1.55917039518840    1.49497022070689   -0.27594962687236
C         2.42496403059412   -1.04276039151090    0.20362223755615
H         1.60777760781881   -1.50871080785280   -0.34262374312567
H         2.02161427023559   -0.58514921802312    1.10427246531528
H         3.12204844076838   -1.82181524905301    0.50003315703957
N         9.20922511741293   -0.90707454206899    2.80788759975996
N         7.35426990159313   -0.31832982934901    1.82687956514868
O         9.93608637104669    1.38817098181932    3.99087687077350
O         7.25039473505322    2.30436278708862    2.39597673059682
O         9.66280740598596    2.56341133707784    1.80758037687529
Cl        8.55794877387920    3.76043691144933    4.36796278831250
V         8.79242487943302    2.09852865269536    3.00035320374345

