94
CSD_code = PORHUA | q = 0 | S = 0 | Stoichiometry = C36H51MnN2O4 | MND = 5
Mn        4.99806373074917    6.99064359724870    5.70239567831957
O         4.15415467999917    6.58778649068243    7.22178198158804
O         6.44229405881097    7.42710812266118    4.74397330511139
O         3.58207809855653    7.19506235417953    4.44657384468075
O         5.20337568293848    5.20736702828904    5.28507929357614
N         4.32697037300987    9.32173158547248    7.40099560092698
N         5.73860022439144    9.85211228712408    5.82556432942003
C         5.00364780220645    8.84092378296056    6.33560607417175
C         4.57694287898622   10.73755885473120    7.64695488775404
H         4.99422485603345   10.87960100067876    8.64877378192630
H         3.64548919626773   11.30522640367502    7.56635984657540
C         5.55881683483061   11.10960215520162    6.54238641346299
H         5.14367178216627   11.86950742914094    5.87400003075581
H         6.51847383645199   11.46417465728858    6.93098440922867
C         3.44830245731024    8.60588075008977    8.22097957166539
C         3.36353898990115    7.19972242907833    8.07243136392024
C         2.44697495105154    6.48586018409564    8.87581268624495
C         1.70356624007234    7.17969516702032    9.81793928616617
H         1.01161817225924    6.62953308702946   10.42735374744683
C         1.81736763804691    8.55012574952353   10.00807983009828
C         2.69423486370803    9.25052306151948    9.18900257916601
H         2.77907286451322   10.31772130674234    9.30638170863896
C         2.27116545358550    4.98807706381251    8.65306130483523
C         1.80775235931151    4.76460319650653    7.20565463584344
H         2.53109379199411    5.16929815851828    6.50112340630552
H         0.85228208027337    5.25823829591523    7.03649734257466
H         1.69050480817248    3.70072659098303    7.00737370531148
C         3.60376390024448    4.26607231356512    8.89405042432752
H         3.95303568897691    4.44952878796602    9.90867432547890
H         4.35969314142098    4.61592472962299    8.19717921493003
H         3.47778810574735    3.19343522911259    8.75810117447044
C         1.22453998963821    4.36634170835153    9.58408872647556
H         1.14202378048792    3.30301091441691    9.36702891662349
H         0.24500745780300    4.81438804954231    9.43352621051966
H         1.51230913089395    4.47288588813458   10.62758029207356
C         1.01823672223563    9.30937574253668   11.05794713671468
C         0.13483788526468   10.35441199759961   10.36168282342682
H        -0.53236583404791    9.86780868800789    9.65384332335907
H         0.73256935721436   11.08201036761398    9.81990881035364
H        -0.46681383242196   10.88712929196490   11.09528814863239
C         1.98818471052934   10.00844295525517   12.02139191130403
H         1.43437322337520   10.53635181575368   12.79505642108187
H         2.61477270240131   10.72808405379926   11.50198286774657
H         2.63490919208675    9.27524520945141   12.49820733894965
C         0.10907121879814    8.39609949053530   11.88462967364276
H        -0.42587381034837    8.98986144259468   12.62340460733911
H         0.68855134166744    7.64385692540838   12.41417164631344
H        -0.62700586507639    7.90295083075379   11.25458256681064
C         6.59812435325849    9.78281268820824    4.72386470090647
C         6.91539956246786    8.51405170542462    4.17973787925865
C         7.76723703973041    8.45201222516938    3.05446889833415
C         8.29496996439482    9.63051729588093    2.55033860429652
H         8.94260754907213    9.57463960266255    1.69576834495508
C         8.02405162318362   10.87523676262912    3.10209294288452
C         7.16329391997806   10.93086439253007    4.19114415071090
H         6.92496720324361   11.88944032592660    4.62042349714172
C         8.04536709698572    7.10163996381012    2.40407345479165
C         8.70850352013700    6.16266884922256    3.42096251155700
H         8.93280411353875    5.20489429780160    2.95490865516226
H         8.05011091779381    5.98926979984696    4.26702338330749
H         9.63731236046751    6.59827310324725    3.78520085106667
C         6.71051210339454    6.50604080536443    1.93239704672631
H         6.24859036788927    7.15744148823158    1.19249182088584
H         6.02169060031127    6.39407036894599    2.76657026118760
H         6.87175012421036    5.52754506014544    1.48357456697368
C         8.97115265987713    7.20536544217882    1.18714055953745
H         9.94487487822012    7.60234077984574    1.46518932993714
H         8.53598741322525    7.83062185871487    0.41088507930148
H         9.12208611691134    6.21170394325319    0.76944044493190
C         8.61681503339199   12.16805083018638    2.55938928263261
C         9.42002510504210   12.86001098434426    3.67015007560239
H         8.78787230633573   13.12094309235930    4.51426930139118
H         9.87523259654429   13.77307472203680    3.29192581561727
H        10.20942772774420   12.20175105838498    4.02617718515386
C         7.47921626728133   13.08699249668917    2.09178946044049
H         6.81795281166458   13.34916164110136    2.91287160376451
H         6.88878171715480   12.59033313768834    1.32515843478140
H         7.88550507595150   14.00639088128916    1.67506772583730
C         9.55630542767554   11.93620683087235    1.37292471654673
H         9.95789609456611   12.89029770157131    1.03686537356332
H         9.02758178729256   11.48274457672415    0.53819168154820
H        10.39212885320013   11.30066648197272    1.65501802530777
C         4.99024294636900    3.02834887353787    4.33908779307141
H         5.80580824666865    2.81669377191301    5.02582079759955
H         5.31122688180297    2.81332028285070    3.32173619230032
H         4.14506879222518    2.38452676210420    4.57447711939065
C         4.58683758004362    4.48194658610943    4.46062625473824
C         3.54391672197563    4.95547684031918    3.64670655248012
H         3.06565873556909    4.26953945646710    2.96483438340721
C         3.10596745086528    6.27642541868442    3.68879141505911
C         1.96983181144322    6.69464241774961    2.77840533061883
H         1.05929925120304    6.16453030149208    3.05055546032949
H         2.20837452192368    6.45963549875354    1.74383780300211
H         1.80604585529142    7.76381137362839    2.88047802564960

