48
CSD_code = PORJOW | q = 0 | S = 0 | Stoichiometry = C21H14ClN2O7ReS2 | MND = 6
Re       -0.50962399952281    0.23562467492691    3.05635762330902
Cl       -0.97860602864642   -2.05131668528324    3.37789490264637
S         3.28890917212898    3.00241504939667    5.25533415793019
S         4.06266245975673    2.49964513281181    2.44057231953399
C         0.13361267450329    2.05679928702100    2.87594869293502
C        -1.38386246265347    0.23836463765950    1.31809268126276
C        -2.17717816744134    0.77044718150690    3.90590245753685
C        -0.09415620191706   -0.51224177621563    6.04180602672882
H        -1.13946425944825   -0.75641710481277    5.90532917820828
C         0.51874603729574   -0.71517457765808    7.26449920009055
H        -0.04924056822537   -1.11071479339059    8.09078930765835
C         1.86220196479683   -0.40139255188029    7.39854527117490
H         2.37648577637075   -0.54500101563348    8.33635077372314
C         2.53563698608650    0.08972137817095    6.29578909721410
H         3.58657961394732    0.32685919399223    6.34272400999295
C         1.84518008312291    0.26215072896053    5.09943542407805
C         1.36769106352804   -1.47316334105613    1.26558743078801
H         0.39480708911811   -1.78500669024235    0.90896005536673
C         2.51953804311374   -2.00568141939204    0.71649524296260
H         2.45044451729937   -2.73094022776747   -0.07785348640534
C         3.74753356850732   -1.58836578398728    1.20606643058043
H         4.66935773851140   -1.97804537254825    0.80217923200182
C         3.76568381323350   -0.67023888709980    2.23913406568746
H         4.69505111490624   -0.33594406434637    2.67259500195053
C         2.55976657097256   -0.18789759164547    2.74189994979639
C         2.56425076397410    0.73145893515653    3.89681975607742
C         3.24779570002292    1.89423687946531    3.88848521677195
C         4.11097374251677    4.28087321024429    4.38961533883284
C         4.45156502546923    4.04991250975729    3.10849664651447
C         5.17268553925131    5.02279104551583    2.22262432133443
C         4.92354520856479    7.00632191021564    1.02085838060807
H         5.71595018977046    7.52602991795929    1.56164930584454
H         4.11224601514689    7.68682860790214    0.77794698635072
H         5.34231969769584    6.56511383826519    0.11465178878891
C         4.39225106069388    5.48838055279044    5.18668650048236
C         5.48042105746433    7.56363023708256    5.21296099216657
H         4.65205894122114    8.27099101049880    5.14125264797408
H         6.36618308745331    7.96451919091973    4.72637984030213
H         5.67889340479673    7.35035481291347    6.26471395815793
N         0.54548101965141   -0.02744399148029    4.98022762033670
N         1.37906203328889   -0.57642190937227    2.24876272357276
O         0.53949379850248    3.13026320513670    2.76857355441108
O        -1.89076336521799    0.16292219645467    0.29314981753259
O        -3.16329216507944    1.01566529779190    4.43490794485867
O         6.31780948953200    4.89864954782935    1.89196891046745
O         4.35567397523906    5.99421438048441    1.84558881252027
O         3.99763626773978    5.63459705589619    6.31431761379043
O         5.15170291361258    6.36302617649818    4.52192627564594

