61
CSD_code = PORJUC | q = 0 | S = 0 | Stoichiometry = C26H18ClN2O7ReS6 | MND = 6
Re        2.57769486846466    8.91376147200218    8.50364971576934
S         5.21274200918083    9.43241287254602   15.45484469948754
S         6.48264455982628   11.72711615168424   13.11511483218081
S         8.02676435046203    8.69805509939618   15.86765244822578
S         9.13271503180799   10.60007933053688   13.86814403275089
S        11.03154437872600    7.76709928196372   16.65977973621919
S        12.14305284423437    9.69206298744777   14.66432466217213
C         1.95038056336102    9.17407379150367    6.67515478898105
C         2.13780913835686    7.02241911978941    8.54578419838689
C         4.39575071379556    8.63854588883627    7.84888737717780
C        -0.40636481835575    9.70167131046925    8.85598764685881
H        -0.50601210942775    9.27308947144918    7.86701762568635
C        -1.46126457353615   10.37752693911817    9.43439157533184
H        -2.38880751682734   10.48908851158275    8.89564963924175
C        -1.31009416277752   10.91919830935428   10.70902160241428
C        -2.41181837583091   11.68742559469917   11.35849860530900
H        -2.25043620724063   11.78002141628190   12.42946887050627
H        -3.37125392608173   11.20661036425310   11.18074600382304
H        -2.45840766291376   12.68932296227940   10.93105108230386
C        -0.08905458458008   10.72541935094005   11.33696511402600
H         0.06079850041722   11.12120080354305   12.32854069906690
C         0.93553824495799   10.03956306374288   10.68980603227019
C         2.24787683852494    9.79059793207805   11.29969718658493
C         2.60839536297420   10.27282568239743   12.55425137058777
H         1.92892508894633   10.89217510173696   13.11733766261384
C         4.28100368643230    8.74013698028108   11.08657682322592
H         4.92817762594829    8.12178539537072   10.47824356016360
C         4.70416489266025    9.17461006399877   12.32814295886561
H         5.67610768317766    8.88487138874005   12.69097346545298
C         3.85983103078360    9.98539888750402   13.07828988390473
C         4.26877321618550   10.59325747572129   14.38648093007192
H         3.37689136217383   10.79698961590083   14.98876312026213
C         5.02317918059360   11.90308090729530   14.18896449524670
H         5.34807729251621   12.30894496730850   15.14706357507346
H         4.38859031502027   12.62788899082185   13.67865005966913
C         7.38383263850526   10.58572638676502   14.09970110310270
C         6.88322075727160    9.71608434314954   14.98855119728412
C         9.45807042986916    9.37680196208518   15.09435513257709
C        10.70283330454357    8.99410233804294   15.42859088064805
C        13.26196389792380    8.80640586847287   15.63756679494740
C        12.77062499459874    7.93417813017964   16.53914292678495
C        14.73847574493088    8.99083005261897   15.41767464459240
C        16.65386286556368    9.97206961541021   16.31394315805020
H        17.12999664874938    9.05789457887790   16.67184308915948
H        16.87005128610762   10.80406304793863   16.97879999084076
H        16.99472087419440   10.18377221313877   15.29892579986172
C        13.62837445880461    7.10639423258124   17.39656908760146
C        13.62076284002500    5.45940646673738   19.05702258433953
H        14.35997199855921    4.88517869201537   18.49522008941867
H        12.88492915321093    4.80192003512569   19.51217987611633
H        14.13532396051373    6.04630074951274   19.82061118008996
Cl        3.01682617278628   11.25150284850481    8.66872069622429
N         0.77031380680768    9.53747417533476    9.45291689644026
N         3.09868172969117    9.04823220294740   10.56657405840832
O         1.55706697688074    9.43658750282672    5.63349871761658
O         1.86176208280561    5.90851331053517    8.59960484180473
O         5.48843219033838    8.57655081830507    7.51855289147796
O        15.23960238128597    9.80279069240634   16.33549259497705
O        15.33770432649747    8.48741260467027   14.51143460474012
O        14.83451625854676    7.13949906135425   17.38065195258466
O        12.89796337875500    6.31658058784854   18.18483913032977

