61
CSD_code = PORKAJ | q = 0 | S = 0 | Stoichiometry = C26H18BrN2O7ReS6 | MND = 6
Re       -4.50615012047880    0.98525056012652    8.62771904193681
Br       -3.96402063229929    3.50598445859397    8.52805571436843
S        -1.99775454622548    1.64918396395967   15.62349764643270
S        -0.69193794109821    3.95835542058219   13.31635441202256
S         0.81157622044288    0.94796249280974   16.11216456431597
S         1.94929324712483    2.85959752568458   14.13916448529119
S         3.79389975445727   -0.02647628122677   16.91297980238926
S         4.94745088531631    1.89714611376823   14.94001574928098
C        -2.69841527994257    0.59792182079232    7.99350284968561
C        -4.97712890010518   -0.88608152165309    8.83183742071273
C        -5.14033620519643    1.07488279643680    6.78222142371883
C        -7.48978205382195    1.81259199513869    8.92509439629401
H        -7.55327672468332    1.42009192725703    7.91825892758633
C        -8.57739180948952    2.43440298451284    9.50087721125556
H        -9.49442199556164    2.53585204102780    8.94285318668886
C        -8.47555056110197    2.93101074921840   10.79911029961545
C        -7.26248176742847    2.75834647720117   11.44753959105267
H        -7.14797864693169    3.12173764016589   12.45578378902463
C        -6.20065890188714    2.12992529618785   10.80238944752198
C        -9.61755879377249    3.63502889140556   11.45027139222858
H        -9.49722314795877    3.66668080622498   12.53014839325350
H       -10.55870229250839    3.14661952840282   11.20791247955742
H        -9.67021523123767    4.65981394050322   11.08167677850011
C        -4.88933128832648    1.92341102694309   11.42711188497625
C        -4.56018347192427    2.41526435780725   12.68639187225365
H        -5.27226893392656    3.00008198709839   13.24548057780980
C        -3.30155351175384    2.18286960427888   13.21916185180305
C        -2.41487098975282    1.41523075415793   12.47046658423040
H        -1.43568715118772    1.16298081581171   12.84084971287277
C        -2.80414623974401    0.97404828600378   11.22180066340538
H        -2.12046020246787    0.39596128734980   10.61367778895940
C        -2.92818860201685    2.80087015457138   14.53206323610181
H        -3.83511860674828    2.99743033157100   15.11372891960196
C        -2.18298512644261    4.11817112161123   14.34828317222525
H        -1.89033419828342    4.53112520288676   15.31363382455743
H        -2.81182640308695    4.83327316125007   13.81742870037475
C         0.19521104205097    2.82771425228300   14.32602898868781
C        -0.31901103297469    1.95286969922828   15.20202359885249
C         2.25435540954054    1.61835873618056   15.35248642109432
C         3.49190375503807    1.21553085177339   15.68987144554769
C         6.04658695618654    0.96471109166177   15.89187260604554
C         5.53612980592966    0.09329144400942   16.78345730568945
C         6.37362232969468   -0.76831225204498   17.62732914230159
C         6.32491344902212   -2.43632596183601   19.26556265986568
H         6.99875295858159   -3.07101879556009   18.68675680359100
H         5.56703869539117   -3.03352192829854   19.76542633076652
H         6.91084671550127   -1.87060788553709   19.99280192013700
C         7.52674010649883    1.10820167492767   15.66467677433095
C         9.47481062881736    2.02908345847060   16.55494185215255
H         9.92599745695551    1.10234667376989   16.91293520972195
H         9.71803299174619    2.85599858773245   17.21681986205550
H         9.81696311653709    2.22848698079424   15.53787749484321
N        -6.32186478802942    1.66142582722511    9.54562405810421
N        -3.99626519526037    1.23167190297339   10.69175821942767
O        -1.61226089020423    0.45393745952501    7.66431934920075
O        -5.26420256698662   -1.98854004509026    8.96317260928253
O        -5.53921619401191    1.21906730629480    5.71904904172954
O         5.62340786625948   -1.55057016200493   18.40483732219418
O         7.58016852500249   -0.76424274565050   17.61274577009072
O         8.10563268702957    0.59152894702007   14.75273272189019
O         8.05632634172883    1.90056716370699   16.58338470052442

