73
CSD_code = PORKUF | q = 1 | S = 0 | Stoichiometry = C36H26F4IrN2O2S2(1+) | MND = 6
Ir       -5.25889268573863   -1.47012717262678   -9.96120385631063
S        -6.39472569732875   -2.10740447778064  -12.03337516198931
S        -3.35176151476685   -2.23684624151216  -11.30362853351749
F        -1.83125638557225   -3.07984017153837   -6.36315037967096
F        -1.95215436834008    1.55167023035307   -6.94028169165790
F        -9.88308606893395   -2.05355904147258   -7.22733958141625
F        -9.43847039039719    1.66117648653223  -10.02090421531995
O        -6.93455707917706   -3.46414516131849  -12.02780099660650
O        -2.45894486511744   -1.16037476022199  -11.72317889451737
N        -5.12541068335704   -3.29631815813191   -9.05402962554574
N        -5.42154529920993    0.43305027454228  -10.68582616132390
C        -5.88175733699394   -4.35011535043358   -9.35004927248988
H        -6.61948984215440   -4.21832550439028  -10.12954478880162
C        -5.74575651336872   -5.57256530232622   -8.71814246899445
H        -6.38685892002131   -6.39360024679825   -8.99329055599456
C        -4.78024643493396   -5.70494999801086   -7.73150969558243
H        -4.64576207532819   -6.64049075312555   -7.21199224211481
C        -3.99803566368371   -4.61118006028788   -7.41097754001825
H        -3.25645532542734   -4.69176296668871   -6.63624236876478
C        -4.18929307226555   -3.40398449313895   -8.08135068575672
C        -3.49960877881704   -2.15384478577893   -7.78373232623299
C        -2.41241464147201   -2.00394332610068   -6.91959528830048
C        -1.86996601976266   -0.76895691087319   -6.62744119647753
H        -1.03070622622598   -0.67848563267316   -5.95769478158137
C        -2.44481398927345    0.34166293531478   -7.21798136675388
C        -3.50049400402327    0.23849187326958   -8.11219220246253
H        -3.88980631690962    1.14444115001293   -8.54783580343172
C        -4.02831253347690   -1.00480545370509   -8.41626623801883
C        -4.45199182026802    1.08780273817759  -11.32132412879312
H        -3.51526650996686    0.56374939839878  -11.45753995598645
C        -4.60238994890826    2.38052755693706  -11.78854424465279
H        -3.78551679829059    2.86619621902543  -12.29624516353324
C        -5.81084520872107    3.02748285226292  -11.57414681985298
H        -5.96265879877382    4.03980312096260  -11.91393355370585
C        -6.81657996521860    2.35882806381507  -10.90153245936404
H        -7.75299278692427    2.85173257833744  -10.70931784668171
C        -6.60380071593490    1.05330746055888  -10.46047341821979
C        -7.54639521153425    0.26147206497226   -9.67866027618836
C        -8.88131975839533    0.58969857269572   -9.43226461037627
C        -9.68858492713967   -0.17775688144573   -8.61755291199814
H       -10.71609825832939    0.09509167513750   -8.44227594399288
C        -9.12972226357614   -1.29952167286869   -8.03249183168674
C        -7.82048328329889   -1.68636669667660   -8.27920868255141
H        -7.45414514439321   -2.58133054973575   -7.80252582223235
C        -7.02028568540064   -0.92378297180077   -9.11380602052928
C        -7.66225944964683   -1.05302305951498  -12.76704926271140
C        -8.97505914977295   -1.47421358854173  -12.64039328864632
H        -9.17380394525049   -2.44194715099436  -12.20654911883361
C       -10.00021432720060   -0.65852818192850  -13.08581239791883
H       -11.02376810351037   -0.98577411623809  -12.99491091503272
C        -9.70777490700874    0.57644214890024  -13.64146064332012
H       -10.50568454757803    1.21699230567905  -13.98233170387451
C        -8.39158709299262    0.99178091273197  -13.76299798690262
H        -8.16346062535855    1.95047390519942  -14.20201291261294
C        -7.36069976067377    0.18090112620242  -13.31935225168948
H        -6.33843932074167    0.51367395183322  -13.41960510185373
C        -5.11038002660200   -2.10648194938899  -13.36704048065680
H        -5.57849800566166   -2.49421209686006  -14.27016111556943
H        -4.76739561708341   -1.08525268043376  -13.52318390603454
C        -3.98576241139809   -2.98805571112122  -12.87469968555119
H        -3.14587650875297   -3.02324506119704  -13.56635809238213
H        -4.35059429078102   -3.99162459746776  -12.66607446860575
C        -2.29370814487060   -3.56511306950625  -10.69436520737288
C        -1.03376104867327   -3.20902928854526  -10.24461051499752
H        -0.70803894648178   -2.18691301488576  -10.36146481589358
C        -0.21778021803531   -4.16840048838679   -9.67122873201361
H         0.76636743861456   -3.89740246666041   -9.32365295552941
C        -0.67062095804553   -5.47134070031626   -9.54156438448865
H        -0.03754701428048   -6.21931766357343   -9.09089321315012
C        -1.93507726831423   -5.81864466239692   -9.99033835042207
H        -2.28539329155019   -6.83461213030140   -9.89458807209288
C        -2.75752287069366   -4.86373906953928  -10.56327256633098
H        -3.74479977050713   -5.14139411259317  -10.90182624551374

