73
CSD_code = PORKOZ | q = 1 | S = 0 | Stoichiometry = C36H26F4IrN2O2S2(1+) | MND = 6
Ir       10.50950524976740    1.48277436331292   23.67741017055651
S        11.63013150530612    2.12277572661508   25.75568118095457
N        10.66414866182460   -0.42050636690334   24.40587305706907
N        10.38914640507214    3.30813723593233   22.76691074734199
C        12.27516666364834    0.93131564002320   22.84181870776241
C         9.28605452474229    1.02016171129068   22.12553745980826
C        12.79538434311001   -0.25449054956679   23.41094394968397
O        12.17394901294127    3.47801923861032   25.75178155065212
C         9.69019959244829   -1.07258254451203   25.03734094775995
H         8.75309099772493   -0.54742346565997   25.16620423141790
C        14.13051022224355   -0.58696082762212   23.17091067968905
C         9.46313483664821    3.41752337222935   21.78493209263150
C        13.08161745495176    1.69065782170205   22.01017345580685
H        12.72006739804375    2.58595955148783   21.53050417762503
C        14.94371733566600    0.17705132363981   22.35892014923147
H        15.97113305151553   -0.09916148822600   22.18826327263129
C        11.84711320348076   -1.04271648980515   24.18953707304603
C        14.39089220818886    1.29989903121908   21.77017700531743
C         8.76811798777417    2.17056898326343   21.48656461472217
C        12.58518576069872   -0.16299056837853   27.05641227367400
H        11.56163285892006   -0.49148780992740   27.15836164995470
F        14.68205386734002   -1.65941762084846   23.76304481969312
C        12.89129187625256    1.06701940573273   26.49788163902290
C         8.75065990138693   -0.22040311336051   21.82335522998942
H         9.13144063997847   -1.12750308477455   22.26415285908079
C        12.05595597630410   -2.34695275120255   24.63624759952549
H        12.99297369690452   -2.84148676008291   24.45140702573112
C        14.20579196829588    1.48289556174360   26.36869982890165
H        14.40787024635622    2.44763512190580   25.92977229485226
F        15.15023157877423    2.05069876238652   20.96759562263778
C        11.14789678859573    4.35915020456106   23.06688742983850
H        11.87721192842675    4.22659528867087   23.85408894589214
C         9.28583541014290    4.62294814050708   21.10754080099844
H         8.55313758772122    4.70425108140713   20.32446586918419
S         8.59240412942010    2.25271044730788   25.00305434230395
C         9.83647507223903   -2.36390680130290   25.50970960494783
H         9.01597012622904   -2.84720512818715   26.01382199454532
C         7.53301224738223    3.57386330304536   24.38092868065681
C        10.33528584241003    2.13043547075877   27.07894479810912
H         9.98703670938045    1.11117547956446   27.23657394419825
H        10.79700453852235    2.52071741438990   27.98429234572508
C        11.04564481741848   -3.01255839651110   25.30503124630431
H        11.19471502502414   -4.02373990243701   25.64939143278446
C         9.21804634418856    3.01374369683922   26.57257658916881
H         9.58903931700019    4.01400093693302   26.35860221527625
H         8.37371535714026    3.05813590864549   27.25824775481290
F         7.11309472063501    3.10371813679163   20.05526879259654
C        11.02453581678340    5.58012403869118   22.42961890809418
H        11.66685144847096    6.39880574150747   22.70895369752785
C        10.07055678245031    5.71377583042196   21.43199525998232
H         9.94700310205839    6.64792348614606   20.90728677844562
C         7.17140767990402    5.82062205652870   23.65734431544733
H         7.52003590051712    6.83639518506117   23.55321059596987
C         7.99475586242193    4.87216927323769   24.23965613655436
H         8.98085555156907    5.15445600294137   24.57803468794435
C         7.69812380377257   -0.31911905078042   20.92491273710207
C         6.27443911647601    3.21156517434940   23.93222718523582
H         5.95041778220001    2.18984037280078   24.05722721158629
C         7.68402494347577    2.02548727795743   20.61777636612272
C         5.45758289956648    4.16450543643790   23.34950137911928
H         4.47441478783522    3.88866450327361   23.00273567783509
O         7.70056494951454    1.17652753488993   25.42549133625862
C        13.61344537481791   -0.97512503904424   27.50403149326565
H        13.38213335250224   -1.93059541769108   27.94842929134801
C         7.13397380934946    0.79342222413455   20.32762971129139
H         6.29699123365160    0.70653437984146   19.65454230950871
C        15.22823249415116    0.66578167996550   26.81755560129362
H        16.25298560296061    0.98879243585977   26.72417443344400
C        14.93128536959107   -0.56521781008788   27.37973631233988
H        15.72701619356777   -1.20698789506033   27.72336571420580
C         5.90829894808580    5.46714084618123   23.20950005760024
H         5.27468860899252    6.21000846702274   22.75123004351934
F         7.19748359712887   -1.52644142580327   20.64969060484587

