67
CSD_code = PORLOY | q = 0 | S = 0 | Stoichiometry = C33H28Cl2HgOP2 | MND = 4
Hg        4.84206354243054    1.92790280620127   10.83280910809884
Cl        5.69285469102123    2.39176559439899   12.91461511598425
Cl        3.82828892993716    0.04773323461263    9.94312899493375
P         5.59628593293265    4.30963755293731    8.51309341297252
P         3.29609603894835    4.16592477209507   10.44393895390054
O         7.24142312462417    4.76727176388485    9.95539336324085
C         6.41496242143315    2.86073416362612    9.13002687132187
H         6.57853362565107    1.99959232957284    8.48942198619718
C         7.41932023193884    3.51992455808269    9.90772247256145
C         8.49030372335488    2.85192566974901   10.64457137379277
C         8.52929905346218    1.46366866682720   10.78510604832766
H         7.76515905181645    0.84344129944176   10.32973072448563
C         9.53215324983150    0.87402143041320   11.52936008631949
H         9.55193385870668   -0.19918037183198   11.64708645822093
C        10.50393276972581    1.65557329664388   12.13539593642113
H        11.28107486264081    1.18830020602582   12.72221999256513
C        10.47337794813198    3.03407268549518   11.99774748936151
H        11.22719617525741    3.64247963487664   12.47545275996632
C         9.47134353278129    3.63089631494965   11.25896071092332
H         9.42049928419676    4.70365765692384   11.14708476114603
C         6.56176086922130    5.42046183549371    7.46029021127256
C         7.03926769324535    4.88314415901204    6.27050335059549
H         6.80394370680113    3.85542678312778    6.02239407006779
C         7.80039656009958    5.66482832804230    5.42164886326205
H         8.17714186417051    5.25090905383558    4.49822262039390
C         8.07827382758185    6.98003759936058    5.75964756732041
H         8.67204663006929    7.59127614043478    5.09649401832163
C         7.60330585904684    7.51168872024398    6.94820967633369
H         7.82874050527017    8.53520771394437    7.20914273546025
C         6.84820255574539    6.73316677746370    7.80688621971102
H         6.49617225100010    7.12806254644042    8.74815837345230
C         4.31950725058033    3.74500460351872    7.33695708698863
C         3.93471426860685    2.41837533447651    7.19216347014392
H         4.39067354212453    1.63899546894245    7.78494944264182
C         2.93684240864154    2.08131190094135    6.29266328100026
H         2.64137999323129    1.04785257621930    6.19490659867235
C         2.31932187227825    3.05940827636928    5.53406316205379
H         1.53954708989236    2.79299177816926    4.83621861048850
C         2.70289983231504    4.38468069987149    5.66870484117417
H         2.22622560913573    5.15113262301060    5.07530338832371
C         3.69856343221590    4.72356964530486    6.56267078824298
H         4.01244841676789    5.75647085144796    6.65890430090587
C         4.54123779712739    5.28661257552327    9.65911483705489
H         4.03912903496013    6.06311193798363    9.07087126680623
H         5.15628245830010    5.73562598451431   10.44265974564128
C         2.83128093916144    5.15881706560416   11.89267396125156
C         1.51813976684223    5.53954958461189   12.14882856689367
H         0.73227084511620    5.28590792625698   11.45135348507744
C         1.22208641705596    6.24205778008363   13.30353415122258
H         0.20319605311940    6.54327576116856   13.49814610972371
C         2.22208414213282    6.54731295506160   14.21150169568605
H         1.98291780644997    7.08989377300849   15.11409771401961
C         3.52485461848539    6.13731792259672   13.97405135221823
H         4.30070084636393    6.35001225694351   14.69396119587438
C         3.83222767515310    5.43828459459297   12.82309858537102
H         4.83994384397265    5.07988527493566   12.65791488337212
C         1.86295442823953    4.26230469648535    9.33210328960271
C         1.25592187091155    3.06422981689974    8.97028597613352
H         1.66267068329458    2.13035288242808    9.33848014656019
C         0.14936610582653    3.07517390650550    8.13983818865752
H        -0.32015895568047    2.14467193772264    7.85885954151875
C        -0.35208849365408    4.27750107056830    7.67179259009684
H        -1.21487749815037    4.28724477374855    7.02243635227107
C         0.24624381584907    5.47324204544516    8.03932596468367
H        -0.15355648255247    6.41046284150864    7.68048802404912
C         1.34989979967488    5.47151282466573    8.87034359068466
H         1.80179439512964    6.40729113055439    9.17186948795429

