67
CSD_code = PORLUE | q = 0 | S = 0 | Stoichiometry = C33H28Br2HgOP2 | MND = 4
Hg        0.34744801336123    6.51577076950092    6.78070535869306
Br       -0.80010671277820    8.51575801497805    7.70838224521351
Br        1.30985908269113    5.79884078577712    4.62025624917706
P        -1.20661923150190    4.26278299325824    7.31573984214670
P         1.05515673548975    4.20309334428080    9.30044002013223
O         2.74191484784713    3.71453556759442    7.90648088790415
C         2.00561673663216    3.12536486539796   10.39990603743023
C         1.86914432807084    5.63754172392898    8.64419525100194
H         2.01236081044532    6.51867751097041    9.26147979354100
C         2.90743603599251    4.96436200055068    7.92628318695991
C         3.99386360029605    5.62060467094206    7.19933517354697
C        -0.24033865371364    4.79111536851629   10.44412838919272
C        -0.58093024614586    6.12729613752971   10.60449035474377
H        -0.07393009549131    6.89905059295650   10.04643896273222
C        -2.64799924416633    4.16684655291654    8.41943254182587
C        -3.25715956160390    5.35230207653068    8.81408126137006
H        -2.86275873840345    6.29994285068524    8.47173797170390
C        -0.90831114197086    3.82461307721573   11.19385356482874
H        -0.62582294615314    2.78322923981649   11.09368221543108
C        -1.58815963021144    6.48881679209053   11.48329899456028
H        -1.84894932178570    7.53078409520757   11.58841605611189
C        -2.25582992714986    5.52163381531516   12.21245301405023
H        -3.04203779549293    5.80488544923709   12.89606571533633
C         4.07768149081420    7.01028730532619    7.09539488449888
H         3.34537914251129    7.64371727477188    7.58164548529559
C         6.03258857001133    6.79124561793273    5.72202293293272
H         6.81866920675326    7.24908340169934    5.14009568215922
C        -3.16233142930882    2.94416026889433    8.84383520885838
H        -2.71182382196623    2.01853889978268    8.50991970483703
C        -4.26525168664054    2.91675350836716    9.67422585654188
H        -4.66516029317945    1.96879622447379   10.00360650737765
C        -4.86319879219011    4.10109263136153   10.07862357599213
H        -5.72551171434916    4.07187917488619   10.72792411126479
C        -4.36304962628452    5.31630809132133    9.64516445546364
H        -4.83237358428519    6.23884901151180    9.95099591966322
C        -1.91085697014655    4.18626240453102   12.07068530072096
H        -2.42414306633460    3.42878213570158   12.64464105306447
C         5.09294791538857    7.58764110295282    6.35867415536221
H         5.14787429629796    8.66264236101002    6.27205942592691
C         0.03460060923900    3.18413034126661    8.16026705834853
H        -0.47407021593315    2.41810920085379    8.75581085567963
H         0.67672521206170    2.71798691072585    7.40953555150338
C         2.45529044397797    3.69254217346883   11.58641353633797
H         2.21144792431460    4.72467463839278   11.80656703758660
C         3.20209187471075    2.93457199581814   12.46882142818624
H         3.55757134852605    3.37215133369810   13.38981788365205
C         2.30436020007383    1.80622095332581   10.09049904497362
H         1.97471921212382    1.38671056075576    9.15172224250493
C         3.04442251770792    1.05151013546986   10.98261004603966
H         3.27915267999336    0.02323282579127   10.75019121755363
C         3.49264588847464    1.61323887246768   12.16767171602807
H         4.07489782966012    1.02042604204594   12.85729031655649
C        -1.67603851012311    3.21919201254145    5.90302091203257
C        -0.68101659768713    2.74000847596908    5.05212562317835
H         0.36123743507212    2.94610647768627    5.25255739098296
C        -3.01573060660932    3.01456843887436    5.58264576115427
H        -3.79176967946067    3.42093579831006    6.21641096265835
C        -3.35072962699309    2.29173282854438    4.45241999078423
H        -4.39117032382444    2.12869992612721    4.21264655171757
C        -2.35927495306388    1.79070377956939    3.62502090862350
H        -2.62607196336907    1.23299494464701    2.73986104824800
C        -1.02616536840924    2.02257777994610    3.92265898498071
H        -0.25075263020013    1.65717059243600    3.26670343179753
C         5.95814886500700    5.41142591395337    5.82339506448199
H         6.68638719106167    4.79182221590411    5.32172058056988
C         4.94460341597285    4.82745092989149    6.55645017863333
H         4.85850124635134    3.75451619176475    6.63914732760106

