70
CSD_code = PORMAK | q = 0 | S = 0 | Stoichiometry = C31H33N5Zr | MND = 9
Zr        2.98497238035169    1.46419964754262    2.62657060310288
N         4.52425331675217    2.56193268715967    3.82021351003187
N         1.71609265175801    2.70547832277642    3.98641912994027
N         1.58857100044988    2.80833611913023    1.41243037352346
N         4.35655724394495    2.66909207473812    1.24869949270720
N         3.03350519368182    0.27069812179699    4.47944816054120
C         5.71740294219262    3.90789347825711    5.52496138079942
C         4.47556141567719    3.29452549958189    4.91246970608079
C         3.26778336109937    3.64014774484303    5.52743335364579
C         1.96720514605062    3.42282533215487    5.06088460020185
C         0.87499462577776    4.15574021963068    5.81153572493612
C         0.44050917261720    2.48748285113965    3.46319665672599
C        -0.70046080500588    2.14024909436015    4.18340580260006
C        -1.88932669212520    1.85360654048802    3.52582966899025
C        -1.95065311091034    1.89590318467518    2.14580820826547
C        -0.82559497553827    2.22884988552016    1.40527213495281
C         0.37518221680108    2.53671368351042    2.04138721535548
C         0.53380643308977    4.43419845233156   -0.13794949062971
C         1.70638535200220    3.63846249674583    0.39749620994770
C         2.94178725512965    3.91926296453322   -0.19259893744109
C         4.20373820417721    3.51433574519526    0.25111838354808
C         5.37866862346460    4.19524740232866   -0.42027971909472
C         5.60235069685057    2.27321916580522    1.73134458250601
C         6.68272563340552    1.85167417127870    0.95911832787140
C         7.84808836845508    1.40193951187922    1.56300637621011
C         7.94586204770004    1.35503412001050    2.94077988465739
C         6.87772560030874    1.75440435510757    3.73297510984967
C         5.70062289439300    2.22006361266591    3.15105303054905
C         4.29350315266319   -0.45364709606556    1.85826971037079
C         3.49927262357736   -0.05989289158338    0.74421493363926
C         2.10220629871311    0.01044570266875    0.82698051229705
C         1.40924616077573   -0.30844300901968    2.02906587596879
C         4.20535046264682   -0.05018086454707    5.08995706861610
C         4.29994185544828   -0.49871887439652    6.38632436241134
C         3.14429480386080   -0.66122090733225    7.15120063618947
C         1.92905986978198   -0.37777343518524    6.52680685618885
C         1.91529418952253    0.06660999149591    5.22564435193517
H         6.49459391739198    4.04251944573811    4.77589765633726
H         5.48059837209948    4.87386720189125    5.96432668787752
H         6.10312941713770    3.26681429729351    6.31709762376917
H         3.35155791028649    4.25188968786853    6.41436286370219
H         0.52232759232250    3.55283625375530    6.64782411210305
H         0.03259851434523    4.37282153229366    5.15848099395560
H         1.25886973127496    5.09019611163597    6.21360809278508
H        -0.65774811756009    2.05839759314730    5.25942084100165
H        -2.76353040755971    1.58556074970609    4.10037210889978
H        -2.87290100020318    1.65871499486639    1.63649000053438
H        -0.87174821901838    2.20604924651575    0.32698654051177
H        -0.23210667118011    4.56327056710481    0.62356565713792
H         0.86885404884265    5.41371451748046   -0.47082064762237
H         0.09071044386269    3.92584446428060   -0.99376076635916
H         2.92894135720307    4.62444709193408   -1.01094564885272
H         5.66541343636690    3.65418140860103   -1.32148358739307
H         5.10586972526799    5.20641060885265   -0.71298349276710
H         6.23771581530856    4.24032578201901    0.24543961282653
H         6.59888439179073    1.83299967722642   -0.11698186431139
H         8.67542414238877    1.07769280460700    0.94934258817269
H         8.85029050827280    0.99612684730373    3.40915420757505
H         6.95414923749904    1.66898880088603    4.80685165089819
H         5.36572161672785   -0.52138142307211    1.68392482908675
H         3.92262079776116   -1.27519991304407    2.47288322505727
H         3.98876288828491    0.27002733368528   -0.17279026293722
H         1.54365351495692    0.39315454786924   -0.02794721149000
H         0.32261033076447   -0.26733740684379    1.98265011086470
H         1.76572600538725   -1.16660128463523    2.60065158857231
H         5.09708756330186    0.02840353040956    4.47658018653243
H         5.26808495412499   -0.73384471354821    6.80277786744184
H         3.18645023034904   -1.01600225814516    8.16798713021702
H         0.99789996178221   -0.51595257939717    7.05582870298163
H         0.97010238087783    0.23886938049247    4.72111481490449

