73
CSD_code = PORNEQ | q = 0 | S = 0 | Stoichiometry = C36H30NO3PPdS | MND = 4
Pd        6.41157452642864    1.99247199827844    2.85078015651416
P         6.63017038509554    0.76575178480268    4.73340743400742
S         4.58493715588747    3.21037455639399    4.18397593997470
N         6.18452631080847    3.13765311230805    1.18088981588043
O         4.34230999747307    1.78171039365539    4.42760061956681
O         3.98082444693155    3.67435171480383    2.95175914130934
O         6.00849114022918    3.59405976343325    4.29095957681153
C         3.81103835929709    4.03799716597059    5.56981431947933
C         2.67063950395732    3.49909831409136    6.13003400794503
H         2.24161646523042    2.61882326723455    5.67822257113193
C         2.11942950927295    4.08045857905898    7.25881123027109
H         1.22799407155669    3.65773476214572    7.70003316518717
C         2.70713551061499    5.19886182044559    7.83762869488520
C         3.85642049339304    5.72807861204874    7.25964133159786
H         4.32360103138891    6.59536252031506    7.70435642690598
C         4.40814548341118    5.14919759596935    6.13115630068106
H         5.31084343588900    5.53465969894374    5.68391937321956
C         2.11578757686229    5.83714980481943    9.05847866155787
H         1.38507480256033    5.18213777807243    9.52585386398788
H         1.61742509375573    6.76847594221278    8.78896687673153
H         2.89266082429084    6.07411091570468    9.78287013713707
C         6.17567294790404    1.46570364158945    6.35169029823386
C         5.07278956528267    1.02805051034675    7.07357375176235
H         4.48889844376628    0.19941461116214    6.70093087867459
C         4.70844083518548    1.67712744146677    8.23942337578415
H         3.84566707432412    1.33926768137703    8.79522094128664
C         5.43548164120604    2.76721584422333    8.68796057900098
H         5.13679611303537    3.28180916151715    9.58959958902341
C         6.54103905125254    3.20089963967869    7.97492815249688
H         7.10802441391359    4.05247719178098    8.32242824607435
C         6.91328726358510    2.55113934545463    6.81272509134869
H         7.76504689575212    2.89372987162072    6.23919824267129
C         5.78807393588025   -0.85011306015794    4.66165000693195
C         6.04440683487290   -1.89667420162581    5.53933861143958
H         6.77052524929136   -1.78046127782973    6.32911414499148
C         5.37242985048140   -3.09930147462938    5.40046137173613
H         5.57674283024770   -3.91002710324182    6.08509723213705
C         4.44190741604617   -3.26475537721916    4.38853152552649
H         3.91999944052819   -4.20488923562498    4.28418993431697
C         4.18201869459450   -2.22345712667752    3.51118484529527
H         3.45606956288202   -2.35179069560920    2.72188347814023
C         4.85424297883451   -1.02258658491376    3.64302941385876
H         4.65397592349250   -0.19169944985242    2.96996090230927
C         8.39954803840339    0.40707007978205    5.09362681153406
C         9.32878811430852    0.76429443112517    4.12109802378335
H         8.96749713437230    1.21984820991931    3.19613537310695
C        10.68154851791662    0.56601241796188    4.33361360300039
H        11.39525960666993    0.84387657287689    3.57189324839437
C        11.12064672380114    0.01916393588549    5.52839748782006
H        12.17574724264471   -0.13870900373414    5.69734495738668
C        10.20541270855076   -0.30324298033626    6.51718813417916
H        10.54867197214094   -0.70372377094259    7.46026529726508
C         8.85285181991234   -0.10242408034811    6.30616226776738
H         8.15046082591643   -0.31605561325975    7.09980060328371
C         6.77731258388018    0.61358450386070    1.48632845989838
C         7.27035863239212   -0.67870381069117    1.63548243334659
H         7.62042421925879   -1.01630533178672    2.60502255278417
C         7.33228195010619   -1.55352002664184    0.56222808586599
H         7.72288583557607   -2.55093791815655    0.70518177550176
C         6.89227874366970   -1.15827779823021   -0.69161053718050
H         6.93240249682547   -1.84632264411386   -1.52328505451300
C         6.41383237200780    0.12322703393481   -0.87727077547722
H         6.08881260872721    0.43341445422875   -1.85969533135805
C         6.35903740760273    1.01237109025417    0.19613122310319
C         5.95369488059589    2.41100134171709    0.07042376911613
C         5.42672232483204    3.01827470973245   -1.06962017925385
H         5.21585000127347    2.43152939883499   -1.94937315481713
C         5.15850177951251    4.37408739268658   -1.05166754460620
H         4.73930047095699    4.85784159658317   -1.92188733808242
C         5.43793390946392    5.10602897562582    0.09343411308238
H         5.25340402880109    6.16730877015560    0.13595720733487
C         5.94244991965919    4.43985946222231    1.19793679117546
H         6.16050004343240    4.96232914682018    2.12297743885409

