48
CSD_code = PORNAM | q = 0 | S = 0 | Stoichiometry = C24H19AuNO2P | MND = 2
Au       -0.77070936768537   -3.32652763026399   -0.79475192782376
P        -1.39027382292978   -4.95784104625890   -2.25776046926843
C        -0.27622406412385   -1.84206699371985    0.51695083260720
C        -1.23233863070093   -0.95276616977034    1.00849480433469
H        -2.26600137017768   -1.03289698303401    0.70336961219063
C        -0.90792202468890    0.06280688312540    1.90164761658915
C         0.39648662774064    0.23756771064924    2.35037948300480
H         0.62341909715083    1.03252992300737    3.04385718388959
C         1.36344219182697   -0.62641604322613    1.88138547771412
H         2.38714678465204   -0.51688499022945    2.21008885632427
C         1.02599185724191   -1.63476235952112    0.98879612193688
H         1.81610691814957   -2.29001224463485    0.64486090773314
N        -1.93345120878204    0.94516869678806    2.36866607229398
O        -3.06536811194197    0.78825718813938    1.94760909865895
O        -1.62518320581101    1.81158189844843    3.16671859279699
C        -0.03350761425350   -5.90710847746011   -2.99879247250396
C         0.98336226736146   -5.15916545539540   -3.59028783023917
H         0.90543726951853   -4.07874193343127   -3.60150356919997
C         2.07149936310585   -5.79500494513265   -4.15472679415881
H         2.85553676785484   -5.21513266953031   -4.61850591592751
C         2.15775930573131   -7.17874992948703   -4.11765860553369
H         3.00985241842447   -7.67694431440750   -4.55523771568448
C         1.15685608356319   -7.92263583313102   -3.51512626398734
H         1.22945236921133   -8.99976062936236   -3.48223797012947
C         0.06029825180310   -7.29278988841364   -2.95209555382258
H        -0.71996998831872   -7.87386578404394   -2.48046142934682
C        -2.31769861482696   -4.35393948764310   -3.69567892794344
C        -2.13655814644254   -4.83235468403008   -4.98881978531075
H        -1.40654604626145   -5.60609337884408   -5.18359790795627
C        -2.89488023361908   -4.31134690358121   -6.02222719723817
H        -2.75533601917928   -4.68193277874244   -7.02716793347486
C        -3.82962254567318   -3.31947623347952   -5.77255093808315
H        -4.41689017575576   -2.91709922155838   -6.58430187607334
C        -4.00880916900922   -2.83895227303889   -4.48471405084360
H        -4.73316686565632   -2.06223623002746   -4.29085643272920
C        -3.25166547392734   -3.35089694095648   -3.44843676945637
H        -3.37152624394266   -2.97702630368907   -2.43912138054834
C        -2.47989479056248   -6.23300687360060   -1.56448477156627
C        -3.50543815048534   -6.83326458903621   -2.28714616160727
H        -3.68781638340479   -6.54185633734947   -3.31231125136850
C        -4.28938011101307   -7.80113679899433   -1.68529162695636
H        -5.08676374045818   -8.26783549652077   -2.24464461193268
C        -4.05596476434097   -8.17153093290653   -0.37044021495106
H        -4.67257468554373   -8.92686166253214    0.09326476497460
C        -3.03784682777724   -7.57035931767738    0.35279191841526
H        -2.86041723116906   -7.85460272583895    1.37923082800913
C        -2.25386222457664   -6.59865040236320   -0.24009590038171
H        -1.46293972029696   -6.11017840729004    0.31572208457903

