58
CSD_code = PORPES | q = 0 | S = 0 | Stoichiometry = C27H27ClNPPd | MND = 4
Pd        9.17244526303970    0.59096350941930    8.69382768005877
Cl        8.77780520158927    0.71651111856757    6.38967775026131
P        11.02865762802071    1.74309091497623    8.32739983903848
N         7.38000633220761   -0.45540983110435    9.06225335609755
C         7.06129348363001   -0.30958219448244   10.49058998387201
H         6.52852006114304    0.64098935317701   10.62743007113149
H         6.39374482397648   -1.12094470920090   10.82319346414681
C         8.33822079613322   -0.27148973824953   11.29099627029618
C         8.37982054411815   -0.69476530678498   12.61050638328733
H         7.48200053874945   -1.07107391385270   13.08319690550110
C         9.56643925589934   -0.63573069930007   13.32025305220180
H         9.59812854539929   -0.96036354203738   14.35019074223609
C        10.70966112049118   -0.16909749421615   12.69732577367193
H        11.64365846754586   -0.13068463497824   13.24042048640239
C        10.66543313684983    0.24864429336886   11.37565023635347
H        11.58249450369246    0.60232617327603   10.91482900328046
C         9.48037125017296    0.22630949820178   10.64759739454402
C         7.74363239987469   -1.83992866603645    8.75576331170301
H         8.53491630715094   -2.17488662783398    9.43455740271017
H         8.10169784457309   -1.89800897825887    7.72192237852985
H         6.87714477260217   -2.50801401886359    8.87037887984065
C         6.24240516190735   -0.05372539567646    8.23951409175334
H         6.49640117258240   -0.17159007844140    7.18492124051255
H         6.01112537773709    0.99926325265339    8.41894147043031
H         5.35699234254936   -0.66277375852817    8.47053601341038
C        11.16456646900335    2.82728115686105    6.87272244138387
C        11.48750998995103    2.26658565642630    5.63954463289074
H        11.69079153252834    1.20675050592484    5.57153659975504
C        11.52355236407702    3.05822472259531    4.50804407744139
H        11.76814863737355    2.61780838155091    3.55267552090601
C        11.23290995124147    4.41056940348112    4.59526682277463
H        11.25565079109689    5.02654344611630    3.70820179882839
C        10.90196939017014    4.96963697396717    5.81784620139033
H        10.66602103506463    6.02183232613752    5.88655818390336
C        10.86198921550190    4.18216572440185    6.95490899859624
H        10.59244318828587    4.61915901763936    7.90701968266636
C        11.39577385733852    2.90229337872947    9.68586046689795
C        10.26746793530757    3.43315988690720   10.30755833590146
H         9.28174196662294    3.10379233997214    9.96836744316986
C        10.40217047507994    4.33872553807167   11.34165343907982
H         9.52686363815537    4.75005766547185   11.82251396950099
C        11.66823115017546    4.70991909493865   11.76859541336373
H        11.77867691495448    5.41068335106421   12.58292354814403
C        12.79152832322614    4.17676804156317   11.15947263021664
H        13.77629290807078    4.46115391710752   11.50086145452894
C        12.66051428703586    3.27648338315679   10.11521522607936
H        13.54024104118346    2.85413286333928    9.65235910996103
C        12.44055531583085    0.62007974781596    8.11443374988415
C        13.70464621555879    1.03729905064644    7.70899970740679
H        13.88606982138680    2.08215305331360    7.49618131219779
C        14.71648229606446    0.10747144032882    7.55022174356770
H        15.69927562950719    0.43045616164586    7.23881784280956
C        14.47008795569092   -1.23733790218072    7.77840955625596
H        15.26370705350550   -1.95841961613978    7.64934755210868
C        13.20480457120329   -1.66051463163959    8.15357655783652
H        13.01097538408032   -2.71135555134693    8.31047938924250
C        12.19111814313391   -0.73447792810064    8.31921046802996
H        11.17870622097608   -1.04630912556124    8.59904294198536

