61
CSD_code = PORPAO | q = 0 | S = 0 | Stoichiometry = C31H25ClNOPPd | MND = 4
Pd        2.97432168106735    9.48268445974458    3.21605890352015
Cl        1.29415324935555   11.04507175869587    2.73032030459002
P         1.86941934511584    7.83954416941575    2.20901497446991
O         3.60480376227432   12.23329270125494    4.08664404011580
H         2.69836089105207   12.17725174325093    3.65549783577662
N         4.04782043233306   10.93660198837651    4.05904526512199
C         5.23834129267113   10.65159112667685    4.45947022481699
C         5.57301223356311    9.23267825930956    4.35503951670046
C         6.76466344797077    8.69959930120850    4.84133461486357
H         7.48797125988560    9.34354476760169    5.32113934533383
C         7.01389439487565    7.34577520639812    4.71668282273138
H         7.93928938518512    6.93105225383748    5.08880510809121
C         6.07156169719082    6.52494600838857    4.12087651912662
H         6.26262406975491    5.46538745431834    4.02493711603618
C         4.87465381325686    7.05185016065479    3.65402250433209
H         4.15164081836223    6.37654721992964    3.20817372836670
C         4.59315067713140    8.40729785136376    3.75721093565677
C         6.18063270993336   11.66242771069920    4.96854422512603
C         5.81753699966479   12.50530254024361    6.01438242828411
H         4.84111465514725   12.40901337924245    6.46460523901793
C         6.70773860367722   13.45538717977356    6.47955333197579
H         6.42157036232297   14.10345373535851    7.29470310355329
C         7.95951010686080   13.58045158171797    5.90070419998680
H         8.65131028006948   14.32657163308251    6.26295933181235
C         8.32145112738241   12.75126997401315    4.85171381313835
H         9.29406575859675   12.85190726869933    4.39244069989218
C         7.43965286062592   11.79327748823658    4.38749608160659
H         7.71318156446986   11.15562236996898    3.55905590648806
C         0.35983937337308    8.21870161374815    1.26767689143614
C        -0.78375647559588    8.53279418116748    1.99903926115970
H        -0.74426737341449    8.50579926936374    3.08136786828404
C        -1.94587120968127    8.89348397716093    1.34657698901514
H        -2.82894486861533    9.14242031041588    1.91627538043914
C        -1.97320348713060    8.94812129770571   -0.03870802801918
H        -2.88067809095303    9.23550531439476   -0.54888372088304
C        -0.83561130850722    8.64703553578702   -0.76791493587050
H        -0.85450625397637    8.69993808377057   -1.84676744141282
C         0.33360820319628    8.28737674585320   -0.11985249765747
H         1.22536214170019    8.06493421847502   -0.68993345782464
C         2.95350879423663    7.09410929157399    0.94950559524375
C         3.89873558360216    7.97034945437163    0.41738034124037
H         3.93744338218429    8.99971086775259    0.79412531910947
C         4.77461575878376    7.53903385857203   -0.56020693355843
H         5.50455016133577    8.21900513214625   -0.97364538652344
C         4.71851583385550    6.22598609956024   -1.00276033626481
H         5.40562903033582    5.88339649471758   -1.76211330935436
C         3.78917061752421    5.34980798845686   -0.46721033327311
H         3.75481920255877    4.32544952090701   -0.80846924437241
C         2.90292661632220    5.77964286015840    0.50613394746007
H         2.18653560574991    5.09034271688748    0.92828957689908
C         1.26691590363147    6.54031089837514    3.32817945507125
C         0.42818008170492    5.50924607602539    2.91675036685141
H         0.10683772271876    5.45361675782136    1.88544536120900
C        -0.01439432759848    4.57603034227124    3.83669266466300
H        -0.66180695572728    3.77211796816195    3.51808848005725
C         0.36175850086464    4.67629425608353    5.16714564978429
H         0.01123351010121    3.94548653240157    5.88080050142529
C         1.16968742386135    5.72119393784189    5.58661982186511
H         1.44334590310491    5.80954319692686    6.62746362738810
C         1.61895170203285    6.65463017731905    4.67022800623963
H         2.24402181862701    7.49558373236419    4.98084839964370

