84
CSD_code = PORRET | q = 1 | S = 0 | Stoichiometry = C36H42ClN2P2Pt(1+) | MND = 4
Pt        3.17537145552394    3.76951492907202    3.42716006318974
Cl        4.02731559408705    3.56929729887307    1.33065986401524
P         2.50627390556902    1.61511456723580    3.73814779072354
C         3.11211692611084    0.06504474357315    3.04328773100529
C         3.74492583812418   -0.93120532748695    3.77882650714192
C         4.16693713107045   -2.08433558407219    3.13994430950162
C         3.96906522585626   -2.24223880263889    1.77793706314156
C         3.34883555231728   -1.24382677946583    1.04179131285807
C         2.92247141473305   -0.09040419771127    1.67040398349927
C         0.70061464329253    1.48646532180795    3.73154627213684
C         0.04711075333981    0.30167982648733    4.05332780905689
C        -1.33511699480790    0.27253149694373    4.08490545896049
C        -2.06239545520375    1.41738859334195    3.79557760427218
C        -1.41228345954491    2.59558650153643    3.46312559601266
C        -0.03070431133250    2.63051673048045    3.42703919325539
P         4.07590667254507    5.85457764878849    3.48418071686593
C         3.66116287326159    7.18425442190404    2.33847696640062
C         4.19935552152278    8.46193572417901    2.48092600317466
C         3.85917370337200    9.45033559218620    1.57636704897628
C         2.98501687375664    9.17118962677349    0.53616200279172
C         2.44683006287617    7.90231295308173    0.39638784798826
C         2.78256876361728    6.90679478698731    1.29657846286784
C         5.87369091977077    5.65221917398002    3.47140466648484
C         6.74513668873924    6.38607878806294    2.67797397772122
C         8.09780602241057    6.08911077100956    2.69415554451165
C         8.57957353263200    5.05917698472259    3.48410079809574
C         7.70730088647645    4.30526369975330    4.25577759160265
C         6.35846548534667    4.59684915900197    4.24437247451251
C         2.88921050348580    1.59355803893832    5.55693553912075
C         2.40869425713654    2.89160971844366    6.12846522561727
C         1.83747681297770    2.93276908431827    7.53648799266024
C         0.31492717612036    3.08727972742645    7.38702292033690
C         2.42089458629438    4.11477374890063    8.32515171043189
C         2.13518208661282    1.65565817865207    8.32996792824187
N         2.44553459645904    3.92287906421113    5.34955116959950
N         1.81759795751224    5.07252615641289    5.62485805267103
C         2.29307371342563    6.24837144727525    5.51870073087893
C         1.33195101653429    7.39745502729206    5.73311226223606
C        -0.07585504153143    6.87300861026551    6.02487171478567
C         1.80894401622549    8.23914000934339    6.92516455240725
C         1.28669083761079    8.26103144840401    4.46677083505771
C         3.72803132975852    6.52027835203078    5.19887768872210
H         3.90943504569352   -0.81701132545233    4.84035981521872
H         4.65464945162879   -2.86161051944150    3.70865265868346
H         4.30421251950053   -3.14337146864519    1.28806051103211
H         3.20370520258726   -1.36440680151426   -0.02059637216209
H         2.44985103566549    0.70544833721980    1.10953071502276
H         0.62131711517328   -0.58968093518355    4.26718036678698
H        -1.84785723845514   -0.64437532560811    4.33253307851528
H        -3.14072176156326    1.38771405373768    3.82124948425741
H        -1.98370037642564    3.48032156304931    3.22727417319574
H         0.49860722599478    3.54167371764744    3.14949127167011
H         4.88205362661012    8.67959753179075    3.29218686792781
H         4.27737010985479   10.44012309033207    1.68025159192525
H         2.72616664865222    9.94700854922695   -0.16764977873051
H         1.76872462105788    7.68821648950010   -0.41519383784401
H         2.38101639007840    5.90550495873023    1.19660934097425
H         6.37114545976150    7.17185841029949    2.03863938220962
H         8.77595884575140    6.65921769139642    2.07791314769307
H         9.63409144477905    4.83078469067572    3.48764259107546
H         8.08189632369373    3.48763539145800    4.85294197121920
H         5.65950080765737    3.99659647618500    4.82458928990114
H         2.42125248865455    0.74212969944053    6.05127500478513
H         3.97695840819950    1.50246704463301    5.66314172745884
H        -0.14251600596733    3.15635498630215    8.36990176570496
H        -0.10451117849498    2.22766567523345    6.86807206787852
H         0.07212942737552    3.98205256632762    6.82235043157478
H         2.05725156201000    4.08067961236602    9.34840334878321
H         2.12424452115825    5.06660410459569    7.89802929541898
H         3.50760754000168    4.05838141524900    8.34999221838856
H         1.81005038314661    1.79624531339963    9.35764093292733
H         3.19984606521524    1.43490266895517    8.34482239683308
H         1.59428305856871    0.79742961848455    7.93959977272277
H        -0.76407982337090    7.70778692985976    6.12213540971861
H        -0.09337488036240    6.30805348915272    6.95234372953660
H        -0.42008136370195    6.23131590344970    5.21891832727346
H         2.78120878779243    8.68926242671450    6.74338965755114
H         1.87221873392314    7.63207521574078    7.82557928538432
H         1.09759357321832    9.04011699169982    7.10613314595312
H         2.23773518784217    8.74842801416568    4.27168522689561
H         0.53299455210084    9.03447432265656    4.58596079881213
H         1.02323178724045    7.65620827099594    3.60157935617529
H         4.38097452308576    5.95902713123651    5.87544580986069
H         3.97478007985591    7.57852676277240    5.25435103767839

