32
CSD_code = PORSEU | q = 0 | S = 0 | Stoichiometry = C15H12O3SeW | MND = 9
W         0.74149348776315    0.51490682597372    9.11515460519148
Se        1.29380021413666    2.99346525102412    8.35798997420234
O        -0.28434672290516   -1.65777102737282    7.11437055902010
O        -1.84541643850568    1.31430337612913    7.54585344922240
O         2.50507445134417    0.08087817938620    6.56886050736218
C         0.09786692298078   -0.90153316931278    7.89959103026916
C        -0.87776694766626    1.07074639820303    8.11428010008465
C         1.89793120243069    0.26268774273324    7.53145808492396
C         1.23081821457554   -0.90579081063221   10.88033583269219
C         2.16646931641201    0.15539751437119   10.95094798095900
C         1.44829310168348    1.34588224241749   11.20035077245286
C         0.06620842513019    1.03383575254223   11.27364696214113
C        -0.07099649471832   -0.36058487108565   11.08980047265348
C         3.24772555873633    3.04438718203834    7.91900415063520
C         4.09050941756236    2.43979204377760    8.98357249237804
C         4.23463959594944    3.08618551376926   10.20912486559229
C         5.02477015670055    2.54548686993199   11.20530683698334
C         5.68980111078350    1.34802058510343   10.99023799888098
C         5.55864298967599    0.69963312705653    9.77384791232930
C         4.76119005598738    1.23878557472789    8.77736206112471
H         1.47163365339847   -1.96171596741525   10.84744417918848
H         3.24303092641788    0.05230169089633   10.97757426998379
H         1.88696079374299    2.30830226466252   11.42815941284447
H        -0.71537197134334    1.71588865775175   11.58575719853457
H        -0.97746231180432   -0.93600006107035   11.23166707680885
H         3.37325658849049    2.54740928364598    6.95752537287767
H         3.45353594079336    4.11135648647812    7.80655814445832
H         3.71840733044614    4.02400210128505   10.36550034664171
H         5.12922225870518    3.05855346385270   12.15032459160503
H         6.31088278999292    0.92575595145704   11.76654590014550
H         6.08052308765901   -0.22992335662681    9.59714427439050
H         4.68227329544394    0.73525518430089    7.82510258342223

