64
CSD_code = POSHAH | q = 0 | S = 0 | Stoichiometry = C32H26Cl3OPRu | MND = 9
Ru        9.93772732747769    1.66989271939237   12.64854065439377
Cl       13.89345947888568   -1.39934944324778   11.32794364462613
Cl       13.63851517899844    1.62999768969427    7.37160053888762
Cl       15.44573005919933    2.90341448275898    9.23889366972146
P         8.82946807504821    0.87905493223672   10.79622326851150
O        16.03036216617877   -0.47792237245303    8.69618630948788
C        10.75196993587611   -0.32515622912268   13.07047632178919
H        10.74649094914438   -0.73436311956194   14.08009058771372
H        10.46497621170604   -1.06716429689353   12.32840928846986
C        11.80213755454549    0.59034922376624   12.77870696889986
C        11.63260240386159    1.36521533929567   11.61500002583919
C        12.90375497641489    0.90174534429160   13.75953496283436
H        13.74470277850590    0.24095233038200   13.54573448858304
H        12.58469885460926    0.71946955175676   14.78546608620654
H        13.24999854546347    1.93009154994356   13.65792356123200
C        12.38563299962269    1.79056434681371   10.56924539339928
H        12.06940020137427    2.65027698308510    9.99071986385037
C        13.50903799329080    1.11598652781127   10.08315452097528
C        14.16262504955501   -0.08855254485706   10.27462504894063
C        15.11945447952313    0.10323376839524    9.21288211946499
C        14.43383617400565    1.48125828441408    8.94586132781645
C         8.84086597199015    2.15882641866838   14.55248069697972
H         8.42642498682507    1.49178762287006   15.29552584403083
C        10.13879958414560    2.73701023039270   14.58643447156454
H        10.85955525590078    2.60809492553957   15.38401958480207
C        10.21665028134585    3.72155805491256   13.56091666295050
H        11.03391117921780    4.41387867871106   13.41448677440435
C         9.00307214988378    3.71112936689220   12.85225821991191
H         8.68779428193150    4.42814515387579   12.10701772070500
C         8.14812551780369    2.72756341914165   13.46400249704647
H         7.09370569094902    2.60288567637321   13.24171903590901
C         7.66787899498235    2.14438424622446   10.18686877241640
C         8.22641225298760    3.31355675887289    9.67065364027067
H         9.30498117173187    3.39450883862495    9.61227319007137
C         7.41341121575977    4.34467178381993    9.24265396870519
H         7.85007121717001    5.24493100614024    8.83529078222464
C         6.03482379220328    4.22469823469571    9.34236840002475
H         5.39789533117374    5.03211380079487    9.01311275242403
C         5.47645126097352    3.07234911927656    9.86808074057593
H         4.40318957111574    2.98155021377067    9.95067294828739
C         6.28732528488373    2.03155540348653   10.29082232139479
H         5.84731278709069    1.13298092550531   10.70047884400682
C         7.73216636637411   -0.56318813249960   11.02639948391777
C         7.38357373319443   -0.92727952560278   12.32167590965809
H         7.80238212108766   -0.36763833834836   13.15014708769324
C         6.52593494568435   -1.98996484239968   12.54040375853495
H         6.25720813912264   -2.27072698672103   13.54821928855659
C         6.01515213778277   -2.69630154350228   11.46364161407644
H         5.34861396605920   -3.52921654277454   11.63144868063342
C         6.36158781628374   -2.33787899402071   10.17007372523634
H         5.96334294950828   -2.89077898675958    9.33204373314580
C         7.21675275219115   -1.27432617060018    9.94686372074445
H         7.48767174022928   -0.99299918891523    8.93893409823726
C         9.69763494254777    0.38334740744627    9.26228220698729
C        10.71679194786555   -0.55948636142226    9.38042057340790
H        10.97987988945703   -0.94268405658993   10.35594945299603
C        11.40026730506893   -1.00127049961401    8.26428544093304
H        12.19144462176803   -1.72836072190298    8.37097448517126
C        11.07718303998441   -0.50414725267358    7.01225630848864
H        11.61818960330053   -0.83912842066994    6.14061269933359
C        10.06012523508054    0.42532742253180    6.88490305906354
H         9.80134945867763    0.81314546732276    5.91062060588109
C         9.36844029046483    0.86640581956345    8.00025047392355
H         8.57226782491433    1.58687550166123    7.88123707303004

