60
CSD_code = POSHEL | q = 0 | S = 0 | Stoichiometry = C28H22Cl7OPRu | MND = 8
Ru       11.22523664487069    9.34206372616424    0.81181651307005
Cl       10.68789832809641   11.42567316321239   -0.16734266468630
Cl        7.88887953635782   11.41491317780327    4.79358556488030
Cl        9.08227581474509   13.99557333722212    5.00822059419042
Cl       10.09598409485664   11.81448225754562    6.58376199305743
Cl       12.67352719481392   12.11653056312220    2.45573980967363
Cl       12.69698841130926   11.08943144286877    5.11040197132720
Cl       12.13524611565471   13.86960966010723    4.66151564562090
P         9.09889249327040    8.61748224130452    0.40638966862547
O         9.84894767355140   12.57788961660237    2.75081851089689
H        10.16451094951055   12.22641785523940    1.89163042887855
C        10.64189602960119    9.83806059587703    2.49024220145822
C        10.31991039901387   10.35537119115320    3.63855323792666
H        10.05312850296376    9.77214519887450    4.50842917234130
C        10.36079239232662   11.86920542891563    3.82597862100250
C         9.44245040940946   12.26573073500336    5.01020571114340
C        11.87435600048167   12.23724779811088    4.03833539212929
C        13.43689980904692    9.51581387407237    0.37804400733604
H        14.07130212234152   10.39057046365133    0.42196747910525
C        13.25272618322414    8.56864120857344    1.40264678407753
H        13.69542590456870    8.59809810271599    2.38872417161465
C        12.45624210696439    7.50769102957702    0.87730857087359
H        12.26561111205099    6.56087634618277    1.36681946205835
C        12.23944999458646    7.77228073530756   -0.50977122254556
H        11.78059676937885    7.08894970999132   -1.21223192578708
C        12.81109877550016    9.01232804380812   -0.80690481750757
H        12.90042974843485    9.45901109296495   -1.78898534788403
C         7.73077053555148    9.36260627755544    1.34561041066649
C         7.54420972758107   10.73248235405861    1.16617496543944
H         8.22134713801364   11.27989430645518    0.52383518166971
C         6.50534387395369   11.37782593997174    1.80785239569817
H         6.36942482080530   12.43992346527680    1.67309846177246
C         5.64791611244570   10.66282740497481    2.62995904823782
H         4.83716409489704   11.16668972217582    3.13466824771135
C         5.83408190800031    9.30294590575540    2.81155765232886
H         5.16776376112708    8.74692813938472    3.45476507436811
C         6.87219733965849    8.64725094864000    2.17178396620923
H         7.00967588111646    7.58456248301837    2.31413673150407
C         8.44456819114806    8.73400961983935   -1.28593162763825
C         7.11008534013371    8.41087523432552   -1.52677404056021
H         6.47684651646584    8.10927913904236   -0.70327752754973
C         6.60668270108278    8.48086411700057   -2.81132124936613
H         5.57289896406943    8.22958380480651   -2.99773628828648
C         7.42424887639027    8.87780934003575   -3.85921089222227
H         7.02525357766586    8.93552304400664   -4.86101115848862
C         8.74740938037171    9.20779857026078   -3.62128421626686
H         9.38084975174566    9.52668217825073   -4.43581662038185
C         9.25800489649991    9.13533680488244   -2.33688166068050
H        10.28571486926044    9.41100171046745   -2.14318795347459
C         9.01200170595819    6.84691330681022    0.80170865921915
C         8.68865621016506    5.86041554599898   -0.12087736026321
H         8.42721712412771    6.13015016568974   -1.13453882845448
C         8.70381905412351    4.52897612847167    0.26189782666275
H         8.45411353878074    3.76312140115690   -0.45769912367210
C         9.03859758890433    4.17820407065362    1.55852103873182
H         9.04738419657811    3.13887585754495    1.85113131638056
C         9.37089455189139    5.16052497930459    2.48061690655217
H         9.63811718050536    4.88669150198770    3.49063482865657
C         9.36737584095387    6.48876034414567    2.10213666270722
H         9.64486123304438    7.27177759220132    2.80035964011261

