39
CSD_code = POSLER | q = 0 | S = 0 | Stoichiometry = C16H18N2NiS2 | MND = 4
Ni       27.23638490264550    7.66528328749926    6.00289683167155
S        25.88803689116410    6.10155440847964    5.17667222311510
S        25.89740077952718    9.42251793220969    5.73606493217035
N        28.57422766017146    6.38244281556450    6.18089510808812
N        28.46909884248426    8.76739256069115    6.86045935042250
C        26.08134177390319    6.44053696690136    3.38907849415726
H        27.11709841092595    6.69389711386875    3.17722596057212
H        25.42703343416723    7.27106181083823    3.14098418062705
H        25.78808630998534    5.54959842439302    2.84096815678482
C        27.04837032197951    4.75581514943266    5.36357182113207
C        26.69329382792763    3.47153282935237    5.01139780744848
H        25.72071136528166    3.28508158383220    4.57886347117260
C        27.58671410568681    2.43768666711582    5.22711761790446
H        27.32979735557172    1.42786261790663    4.94939306791307
C        28.80654680999028    2.71755176087059    5.83179102419864
H        29.49741745089340    1.90956892302578    6.02638463685154
C        29.15783321021628    3.99679341129255    6.19954544783876
H        30.11002508360145    4.16935591104106    6.67429953004477
C        28.28940396348699    5.08208265268870    5.94940680794704
C        29.74924095774347    6.71974208994155    6.97728002276380
H        30.65650108948672    6.33756776398936    6.49027864615652
H        29.67150869605950    6.26317547641862    7.97481231475053
C        29.81200269659641    8.24703428416890    7.09436553519046
H        30.15942627575850    8.53896078652681    8.09459213203037
H        30.50947572001667    8.65793672112632    6.34994717242440
C        28.27403445659315   10.10442606893347    6.87259640879588
C        29.20457422072195   11.06292212259755    7.33077151853446
H        30.18586933601873   10.74961370732019    7.64801246069011
C        28.86842326021087   12.39672839776506    7.38729848975987
H        29.59933834827023   13.10482886253332    7.75118437598762
C        27.62111732449902   12.85596259049746    6.98103778988038
H        27.37935290760029   13.90577744628101    7.02961894181408
C        26.70148664771701   11.94825583394175    6.48693792775247
H        25.73573304813833   12.27394310248857    6.12803580194440
C        27.02941576581588   10.61041930540232    6.44310451078274
C        24.77707717595636    9.17042000657640    7.16074600352006
H        24.31320046450944   10.12321945062239    7.39958054890489
H        25.34635308664588    8.80082798253108    8.01005020335037
H        24.02474602202869    8.44662117333364    6.86173272490471

