67
CSD_code = POSMIW | q = 0 | S = 0 | Stoichiometry = C24H24F6N4NiO6S2 | MND = 6
Ni        8.94372521140711    3.48910681706868    7.74640672873211
S        11.73622201629596    2.31557406230459    7.27027013392286
S         7.24811705091160    5.52064662180414    8.55090946557666
F         5.96917758876866    4.84974276929391   10.79371109444880
F        12.09990412962070    4.31783462835554    5.52392637773784
F         5.26576483556862    6.71829162538441    9.98220552299424
F         4.71753342080855    4.85694670176289    9.04239649658135
O         7.36207989572066    4.06411619992365    8.42012052354085
O         6.80863459560349    6.18881427535417    7.36400780841437
O        10.32054769542733    2.58447347103533    6.98759671138872
O        12.05623266286977    0.92722303673220    7.14810458123828
O         8.23944242028745    6.16992885577703    9.34934109315950
F        13.87325953656288    3.15336308591638    5.88924160495091
O        12.30339024432355    3.02872931393669    8.37461298924329
F        12.28651454507122    2.35844102628148    4.66336631002194
N         8.70926258021359    1.81704372172401    9.28857972382201
N         9.89000179015777    5.34973274572206    7.24529435568159
N         9.95914933740042    4.13834372818363    9.52899093387507
N         8.23172019621780    3.85359016120757    5.64042710598385
C        10.92082923107426    5.62971222021432    7.99262567558241
C         9.41149122007998    5.97394679312510    6.14024976688838
C         8.56755559825237    2.53366350485778   10.52067507515464
C        10.90423990473400    5.00602826607196    9.33102860656976
C         7.54254332427923    1.01261232803816    8.92113449662690
H         6.65034988095308    1.63601367622216    8.95639914547702
H         7.41782992168309    0.14553642019759    9.58191773539971
H         7.68727063669695    0.64765101681867    7.90374608244495
C         7.72649807060591    2.15616930401848   11.55184809934744
H         7.10428810714476    1.27974022641475   11.46414318078783
C         5.71549991932962    5.50709634183137    9.65461343379616
C         9.60899464370568    7.33844522177837    5.87454667567174
H        10.19940334366204    7.92208499802712    6.56277178671908
C        12.03804603006998    6.45123713340561    7.65195684654318
H        12.12502507814753    6.80018249107207    6.63427027871020
C         8.50252137777341    5.24503214980127    5.33094378280578
C         9.35719285931687    3.70893307382505   10.65995403319563
C         7.66849153260760    2.90284133642358   12.71956754577436
H         7.01398787211610    2.58977578218597   13.51821494275979
C         8.89153894155774    3.01377605695231    4.62918423991294
H         9.94386026628838    3.27001824309230    4.55925944251434
H         8.43042028887343    3.16166229888919    3.64476568449187
H         8.81284550937889    1.96555498109627    4.90993894978708
C        13.00352699910391    6.71939167942615    8.56565828961920
H        13.85582752965242    7.32489197908502    8.29404653223462
C        12.94393638395717    6.18182679398478    9.87975488087260
H        13.74816550884247    6.40527985595668   10.56516705028114
C         8.42768874599794    4.05562235930628   12.85673875458017
H         8.35114020372271    4.64483408267819   13.75761615762916
C         9.89280049541749    0.95029050276727    9.38077259776109
H        10.06605597038993    0.44349320785659    8.43421702847964
H         9.74985538621091    0.20247401146338   10.17169824770652
H        10.78219917994732    1.53737497529039    9.60045833949544
C        12.55202924060527    3.07688586428906    5.75750911076556
C         9.25919891034492    4.46630685946182   11.83761649783136
H         9.78386880975800    5.40579557144890   11.89988377844405
C         8.98709979648832    7.94604435170842    4.80606671066970
H         9.14277050034764    8.99811042455941    4.62097274081329
C        11.93567999515242    5.35694067773004   10.25348363527202
H        11.94350580634665    4.87122548357879   11.21719333403974
C         6.78626297564206    3.57321413326645    5.60516002721255
H         6.60611920552929    2.59668665063849    6.05434217066336
H         6.40071763326205    3.56287404420893    4.57934349712926
H         6.26004245631577    4.33311390121086    6.17868458983981
C         7.90300454575817    5.87682631754841    4.25683076629512
H         7.21632111333449    5.33828808650379    3.62210415631285
C         8.15132178705306    7.21229707677028    3.98068516278129
H         7.66865750923726    7.68285439711193    3.13783087499450

