59
CSD_code = POSNIW | q = 0 | S = 0 | Stoichiometry = C22H16N18NiO2 | MND = 6
Ni        7.67037036437356    1.37158867856327   13.13387431206616
O         3.84923193117850    0.27831149700826   12.12541047644142
C         4.99924557038894    0.47526735159846   12.30067742013050
N         6.16534210792849    0.60363045753791   12.40288381483003
N         9.19249869112859    2.12466038395155   13.84349746603095
O        10.48148981766327    3.34674739109525   15.38972061285583
C         9.79484330233409    2.74643854614365   14.64144215453989
N         7.95716702888089   -0.60017160385889   14.60083477969065
N         8.42765606788531   -3.92516175975863   17.04005980978627
N         8.07106349629586   -5.05600700219885   16.94621497000519
N         7.84062053570760   -6.14831186888599   17.05825814360790
N         6.58939290764189    2.29305280459811   14.42843713681284
N         4.24914464687843    4.33669027054001   17.18766820307899
N         3.46935767697254    3.97978656611004   18.01327927041834
N         2.71471304723241    3.86744829449493   18.83496503068138
N         7.51909588600024    3.22926412700422   11.50943130187563
N         7.35111255728236    6.16510535803845    8.58022733483553
N         8.17677128788944    6.86207832692955    8.08310210729079
N         8.78038872617183    7.60127201739467    7.49303070348278
N         8.77492897782993    0.42636326255122   11.81023440689236
N        11.08821923171654   -1.54494103507102    8.97294937894478
N        12.12298156742480   -2.13021602277455    9.03336338439105
N        13.06569399822780   -2.71409522602142    8.86598640397996
C         7.44384505554296   -1.77091113789093   14.24190411832727
H         6.90388324482029   -1.78166631465073   13.30407557872131
C         7.55972187262893   -2.92116895919607   14.99957541027424
H         7.12229971410946   -3.85103800862483   14.66713100975960
C         8.25481604937373   -2.84909929281841   16.21005746750663
C         8.79687209677580   -1.62070612982251   16.58945253915955
H         9.33907678961889   -1.53118484674924   17.51643172190178
C         8.61863746210240   -0.53653957522802   15.75147658190497
H         9.02808598342550    0.43102590462134   16.00968900977281
C         5.77684305460364    1.62696898453534   15.24768936037224
H         5.75489628189623    0.55109387833233   15.14752141368895
C         4.97622110563626    2.23922005492105   16.18922573659300
H         4.33660057213773    1.64893592647447   16.82835963668893
C         5.00481909233038    3.63304160450360   16.29381504324184
C         5.85439028685995    4.33043854496812   15.43397475913717
H         5.90926691454384    5.40549226110222   15.48263556468291
C         6.61991124710085    3.62223061321519   14.53189624824503
H         7.29097900103317    4.14677367165284   13.86690668991551
C         8.62293270543608    3.86588048603806   11.13631431834542
H         9.53112296283263    3.57468198725189   11.64776759414359
C         8.64669926624664    4.85274642400637   10.16887302787995
H         9.57006479888761    5.34437272761367    9.90015141570233
C         7.44323764855010    5.20135303651641    9.54952189855624
C         6.28114600075155    4.53539534000490    9.94012003127407
H         5.33659292669356    4.78117048520113    9.48330321709127
C         6.37713660332605    3.56453421850328   10.91866298324816
H         5.49835343810061    3.02381818960530   11.24379141866549
C         9.92557630559799   -0.14777147042911   12.15878106778853
H        10.22175000274110   -0.05622520350540   13.19415492830046
C        10.74057767777004   -0.82165584232842   11.27188764348650
H        11.66270579946917   -1.27104353722578   11.60967085910617
C        10.35297041549967   -0.90599058247048    9.93149016718835
C         9.14936704043910   -0.30212088373809    9.56589883648347
H         8.81265747415572   -0.34552766892910    8.54308393793180
C         8.40336815036197    0.34070054555344   10.53238609017453
H         7.45864553357957    0.79487375399733   10.26977405207517

