79
CSD_code = POSVEY | q = 0 | S = 0 | Stoichiometry = C22H45MoO4P3Si4 | MND = 6
Mo        8.95874889411460    5.08012148653581    2.69112304248395
P         9.69778393185642    7.00503814386523    4.07495951711990
P        10.21300215184921    8.49269973537467    2.55070098932443
P         9.79225371302327    6.84950006658979    1.16332966891977
Si        9.05043456968529    6.35638256963395    6.90362200135407
Si        9.14663288944756    9.54199764963892    5.97917338855366
Si        9.36650089204493    9.16646133025876   -1.02974787988154
Si        9.35038339781866    5.90080452608335   -1.62017471861519
C         8.29311566581239    3.76282915237760    1.43021816372507
O         7.86679193468183    2.94677716453158    0.74777131057041
C         7.22996330462699    6.00056676931059    2.58191600238592
O         6.20254960634884    6.50420509097780    2.51823946440082
C         8.20556739604963    3.90251895361975    4.03813631607926
O         7.73214136491902    3.16222114708821    4.77370494738834
C        10.64565901558592    4.07535534293142    2.80215259665865
O        11.58661578241852    3.42697353162968    2.86773494669498
C         9.37490662035546    7.69556264571637    5.57295761528650
C        10.25941963472513    4.90949384972518    6.60972955605749
H        10.14874912597441    4.49247626589680    5.61085517459065
H        10.09137994024810    4.10602022602078    7.32006514877307
H        11.29127247216834    5.23294497347519    6.72009352121195
C         7.22947277181105    5.81462576381288    6.74736446209456
H         6.93784906170506    5.74368240329255    5.70178705066350
H         6.56218205082081    6.52273569282661    7.22836585109193
H         7.06485539574336    4.84303283648775    7.20181939595263
C         9.41597631241520    6.96801015984978    8.67180342572441
H         8.86678133090981    7.86543966528034    8.92789016588021
H        10.47187112246353    7.17346557080136    8.81143731623594
H         9.13858956666242    6.20041144834382    9.38649986953925
C        10.56035032320175   10.15073451762603    7.10879983212207
H        10.70018035005877    9.49302139928026    7.95879544031726
H        10.33243127784350   11.14005363987144    7.49283406640072
H        11.50683367195255   10.21601444835068    6.58207169545198
C         8.99424293256993   10.74455266333970    4.50653786652397
H         9.94130163867695   10.92243978859714    4.00890229332082
H         8.62156470388228   11.70442680929034    4.85352683649133
H         8.29569286481755   10.37159846800493    3.76350067219655
C         7.46359102518535    9.66326527749036    6.87379443692722
H         7.44257236393748    9.08140748620927    7.78731160997102
H         6.65884344352724    9.30464136897396    6.23965259917161
H         7.24148501515810   10.69319196831506    7.13526562571365
C        12.12174804987084    8.33597201868263    2.62049386715837
C        12.64200975917131    6.90479820925208    2.71184652415580
H        12.34279995272391    6.31655564586594    1.84097285090498
H        12.28577490328048    6.40953440465997    3.61837588264330
H        13.73212570927200    6.91675138318063    2.74603901430825
C        12.57012990822350    9.11755837957460    3.85243216656205
H        12.24895205321552   10.15581863466184    3.79034551411832
H        13.65620333695489    9.10019267420125    3.93832166541603
H        12.14336617649058    8.67712238834093    4.75402599741880
C        12.64897216325230    8.98671860811733    1.34450395338761
H        12.32331859280519   10.02322751890429    1.27579638225640
H        12.28207851467942    8.45053689565732    0.46878317933585
H        13.73833676288698    8.96873704797570    1.33127694931577
C         9.57426541935815    7.37513933310712   -0.41817070227380
C         7.75410713630375    9.17143315838906   -2.05337815253466
H         7.80672927539278    8.50174881078337   -2.90325941992566
H         7.54329966241863   10.16668397324288   -2.43216781001721
H         6.90723989340475    8.86446033971893   -1.44763777855986
C        10.85494177775036    9.67843599309328   -2.11027523693131
H        11.06584974463630    8.93693640470488   -2.87210941280780
H        11.75810353472617    9.81745701103157   -1.52510229052522
H        10.64558531948510   10.61679077581003   -2.61410940525435
C         9.09632731456735   10.50782888728910    0.29905057241323
H        10.00455908909446   10.75501998691528    0.83786026374169
H         8.35423573585818   10.19608202985048    1.02806795192957
H         8.73396801934820   11.41976681375192   -0.16748203635470
C         9.85113188629278    6.32905231760037   -3.40906640412600
H         9.32141124362002    7.18934205624041   -3.79881221124910
H         9.63214091597660    5.48864899861629   -4.05921614080977
H        10.91421944498578    6.53007948401178   -3.48723838596907
C        10.53358303256864    4.50269757829741   -1.08466514469273
H        10.33641730870567    4.18117163695696   -0.06409338065592
H        11.57005054481206    4.82651776051193   -1.13442531642430
H        10.43190608015568    3.63347405104267   -1.72692407211731
C         7.52366803097224    5.36129337409640   -1.54649431858090
H         6.89417131779695    6.00785794544731   -2.14954071735127
H         7.15269781487588    5.39848852761257   -0.52463358542184
H         7.39623504698804    4.34546694545156   -1.90631209737128

