76
CSD_code = POSXIF | q = 1 | S = 0 | Stoichiometry = C28H40N7Ru(1+) | MND = 8
Ru        7.12300030902532    9.81674345836184   10.69570914286123
N         6.10752538254749   10.67705929197702   12.35539194134873
N         5.55947871197107   11.91505402002659   12.35893499027161
C         5.91530163268604   12.93665676540127   11.42017774003694
H         5.22069724887155   13.77739153438698   11.58696360669157
N         5.71236703455743   12.51629718856078   10.05865847041084
N         6.05474572834286   11.29241145661275    9.60272602387972
N         7.72646127950399   14.16944230507339   10.54510565807647
C        10.08423112158770   11.70206475263736   10.55731874697023
H        10.13475833438412   12.14632667044062   11.54781593097603
H         9.66733607352669   12.43556665414123    9.87058043662891
H        11.10339865234409   11.47857497687474   10.23425784156269
C         4.84112499750634    7.80838585623626   10.34820831894878
N         7.27285568825663   13.42802032214935   11.57781992916472
N         5.60197795008371    8.66369368720026   10.51643711054901
C         8.56297845216215    8.40944340485142    9.68063702733075
C         5.16861455503128   13.27544487620828    9.06869279683173
C         4.70589800984055   12.06906869333991   13.41323986568726
C         5.96714887155746    8.64206057249798   13.75774733699398
H         6.62582879151781    8.22550103140204   12.99886673501524
H         5.06803085315092    8.03325355140373   13.82728955203915
H         6.46136374544768    8.61412586188772   14.72787416319900
C         8.04043200084317   13.61268080854417   12.69407015893986
C         8.80818103065490   14.78826713145253   10.96813931957139
C         8.68889112103713    8.26425541577027   11.11334353722187
C         5.60957290057589   10.03858742753955   13.40666354910807
C         9.04956603939330   14.46641624996006   12.32022797873456
H         9.85558917024449   14.81649134773090   12.93157397771651
C         4.76058881603352   14.68711442403094    9.25253571016302
H         3.93446079557030   14.78082177549436    9.95780027382935
H         4.43919847751098   15.09266158462509    8.29816803455734
H         5.60671716339246   15.27011596202679    9.61478010488882
C         5.13956614133281   12.48125225074996    7.94953225246091
H         4.77169894391945   12.74482203501540    6.98003342361579
C         5.69428812089380   11.24793099016607    8.32746666495440
C         7.80776198192162   12.96950016965236   14.01187595088103
H         8.63628413515366   13.21599993755392   14.67073333983127
H         7.74877242103437   11.88616974579342   13.92021285826804
H         6.88939795974023   13.32661831164809   14.47704068723419
C         3.86868417886635    6.77540590210834   10.13988043436738
H         3.83493354595339    6.11143373786358   11.00398406829476
H         4.12765829607138    6.19292986499265    9.25548107058099
H         2.88362645280906    7.21918063877662    9.99478960617187
C         9.28044641179491   10.43577752535703   10.55558804610563
C         5.82261180982437   10.03534339722998    7.48102762328992
H         6.39189625353943   10.26092652286129    6.58213394965064
H         4.83411008988992    9.69774626101695    7.17265129545606
H         6.31319911530487    9.23977628608975    8.03793299963473
C         9.17594629123189    9.50060528234450   11.63460104117780
C         8.71240200669993    6.94031242303989   11.82014079876287
H         9.61406323991452    6.39810678019167   11.52895620834712
H         7.85549049169162    6.32366859265304   11.55210277506776
H         8.73175633495826    7.06407536707870   12.90012761041178
C         9.60565306234429   15.67485328841991   10.08570793415208
H         9.15658502559437   15.71335401788776    9.09759354588011
H        10.62643085130227   15.30515642385193   10.00328285272613
H         9.64548580546417   16.68001876812226   10.50179191378813
C         8.93814903544816    9.73489228150097    9.34192239137197
C         3.93445379150679   13.30674959363678   13.68523175030761
H         4.58374115626401   14.17446153184722   13.79930875747395
H         3.37440198255030   13.17683753634684   14.60686615578662
H         3.22438867202167   13.50914169824390   12.88316584937097
C         4.72522318448686   10.88159522399899   14.10047372534034
H         4.17487853118375   10.63856488324825   14.98517763572116
C         9.67963302354136    9.70668900840143   13.02951411818136
H        10.64342420919921    9.20506884096780   13.13361752168557
H         9.00348530648622    9.28789391369773   13.77288123752994
H         9.82534503461053   10.76216087051824   13.24411934378425
C         8.36009451594225    7.25823864705816    8.74225285007346
H         8.10083465310438    7.59279700900916    7.74059609898994
H         7.57907661068674    6.58833454044002    9.09855186091353
H         9.28662190800145    6.68496039752708    8.67701829027457
C         9.19609212158055   10.28663583192650    7.97521694443163
H        10.27354052017075   10.39361696792389    7.83798235922034
H         8.74773552161010   11.27154457185614    7.85211427218004
H         8.82031031520069    9.62775307252957    7.19756387605239

