83
CSD_code = POTCDR | q = 0 | S = 0 | Stoichiometry = C40H30CrO10P2 | MND = 6
Cr        3.20499089558089    5.89187505498767   -9.82065245036043
C         1.59527563902358    5.11449878540410   -9.34413536310926
C         5.62589393636671    2.97943648533755   -9.23156344734072
C         6.40675556073753    3.73941020815210  -10.08983311579114
C         6.94042998473469    3.15574896539209  -11.22574212591336
C         6.70205077362772    1.82068394239831  -11.50177392462188
C         5.93405589855525    1.06248685250375  -10.63355265802306
C         5.39153489380691    1.63680393026781   -9.49865094626671
C         2.90492039184773    7.28590715522532   -8.63861619794050
C         6.18079503685624    5.76054521440739   -6.39010433100318
C         7.31694108336728    4.96648551766962   -6.39376061395879
C         8.03189755548910    4.79610379901339   -5.22046337303981
C         7.61566641969397    5.41197655716611   -4.05274310666959
C         6.48025503014679    6.20517667809087   -4.05730249093728
C         5.75827791598530    6.38074048097145   -5.22413658007730
C         2.46302718879203    4.03425233262352   -6.43380424022534
C         1.68448861549732    4.37366309605745   -5.33439120916373
C         0.53311797996851    3.65776488568145   -5.06270687297720
C         0.15390715691226    2.60783191975404   -5.88251836556595
C         0.93324339425632    2.27374379969170   -6.97601804161142
C         2.08935051850993    2.98219691450511   -7.25511149182326
H         6.59660280849466    4.77565866075924   -9.85393332626515
H         7.54009289654647    3.75222146801565  -11.89667342233850
H         7.11353958990307    1.37070318513471  -12.39235842910426
H         5.74724220954134    0.02029999640384  -10.84428944810334
H         4.78638652780645    1.06088262574461   -8.81501534809857
H         7.63466973914465    4.49259507199654   -7.31025631982674
H         8.91662579643616    4.17717144515011   -5.22141264867900
H         8.17545787945325    5.27408685979016   -3.13992779170928
H         6.15280128775323    6.68761136719565   -3.14852033016757
H         4.87073344808178    6.99389395167501   -5.25128188663938
H         1.99384938771127    5.19637543591923   -4.70889762307015
H        -0.07172773863502    3.92490818145619   -4.20941625280986
H        -0.74762279706523    2.05358426167425   -5.67052266213089
H         0.64095993402793    1.46016873331322   -7.62246079916129
H         2.69887820105422    2.72940393002762   -8.11032376627574
O         0.54689480021883    4.68363800296130   -9.11985942174870
O         5.08385190536322    3.51888445503759   -8.08870611336247
O         2.78122748640426    8.12024581446272   -7.84860892615496
O         5.47509348888543    5.98212743085066   -7.57046704619338
O         3.61253068668102    4.76367072977384   -6.63587335758285
P         4.32645289586314    4.97007040586935   -8.06286975650464
C         4.81427055970631    6.67291907393698  -10.29311690486076
C         3.50341155063620    4.49768566979016  -11.00332629323007
P         2.08452116975542    6.81133253772536  -11.57994652707980
O         5.86120932053038    7.11178829146861  -10.50858642109278
O         3.62446027042439    3.66437652201841  -11.79485748118698
O         1.33086720537902    8.26442275218090  -11.55833157254386
O         0.93319689756694    5.80044120212314  -12.06901297611732
O         2.79841591384829    7.01140150288262  -13.00790327622984
C         0.78800161564480    8.80662695708092  -10.41706398266605
C         0.23029036500171    6.02021227597249  -13.25142702153160
C         3.95074183663204    7.73561585375866  -13.21246743978938
C         0.00333136557345    8.04961752300188   -9.55971305871932
C         1.02562249465405   10.14882107750605  -10.15071902571170
C        -0.90282330559572    6.81851966822434  -13.25291918902118
C         0.65310131394875    5.39469261923223  -14.41446048572195
C         4.72964013478950    7.38731658961122  -14.30882102425106
C         4.32646430319324    8.79162386635540  -12.39704172613797
C        -0.53086254132316    8.63580331077687   -8.42534696145636
H        -0.18880232234436    7.01359976383701   -9.79496796601688
C         0.48266309500188   10.72565190051005   -9.01728102538807
H         1.63370184391012   10.72242427406253  -10.83366693057728
C        -1.61418403562946    6.98827010656896  -14.42853393195125
H        -1.22106905576437    7.29643813261143  -12.33871517025882
C        -0.06520822171885    5.56970239974804  -15.58359120738812
H         1.53819596553714    4.77818136292100  -14.38328170212896
C         5.88323429208976    8.09840720796094  -14.58358375274702
H         4.41873946443229    6.56158307528430  -14.92967922436486
C         5.48474104437533    9.49509149650484  -12.67900060369960
H         3.71661910122660    9.05113976529358  -11.54421954864960
C        -0.28910621164308    9.97038756057301   -8.14991365232442
H        -1.13351738001409    8.04165149778530   -7.75505856058404
H         0.67210757999083   11.76747557991580   -8.80700863973069
C        -1.19734662022077    6.36756530953942  -15.59341690011509
H        -2.49647446261381    7.61066202010939  -14.43149561051588
H         0.26258685341686    5.08339008689547  -16.49015586239405
C         6.26428134053477    9.15232985792304  -13.76968871522073
H         6.48835588800467    7.82415258780360  -15.43464447596262
H         5.77891282869320   10.31134093045090  -12.03690895659214
H        -0.70094564552217   10.42224988609602   -7.26043651981097
H        -1.75402905087889    6.50520073398054  -16.50817193484342
H         7.16766693529936    9.70285258142479  -13.98366211904080

