39
CSD_code = POTGIP | q = 0 | S = 0 | Stoichiometry = C16H16N2O4Pd | MND = 4
Pd        7.17609416268622   10.55653257488971    5.79014593809670
N         7.64926251394348   11.93742144620964    4.49405989719675
O         5.78359502438939   13.18503784089182    9.19741256980862
C         7.77383272749497    8.00145143756401    4.47380447016977
H         7.35986540907992    7.57865715593817    5.38153175680254
O         6.59944240145687   11.87502448196149    7.15543537794641
N         7.74672218456661    9.33450049685392    4.38619694866299
C         8.29435581696873    7.20295954502738    3.47338477235071
H         8.30032188819125    6.13110123258797    3.58744952824734
O         6.74683499221553    9.07003777941039    7.17152795102320
C         8.80698298242652    7.80250244983164    2.33092328735371
H         9.22486180022600    7.20883489589581    1.53307327970904
C         8.77110793989877    9.18419130649474    2.23763453276659
H         9.15713964037992    9.69068081328363    1.36646706335262
O         8.86756127361516    9.60664043409226    7.46709885286164
C         8.23577013094787    9.92392512873231    3.28212612818954
C         8.16126214467232   11.42784618942533    3.23804622938670
H         9.16029532483909   11.83871555497658    3.03105587668911
H         7.50276003676409   11.73022441065450    2.40843116030133
C         7.59873123395637   13.21521841976311    4.70365299623857
H         7.94559980769236   13.87998663239149    3.90732239304428
C         7.12922127566695   13.85790901218864    5.87560901209371
C         7.14255177243556   15.27584913696657    5.89119105668118
H         7.50388120899389   15.79337454942153    5.01404155313665
C         6.71527922549688   15.98051140880392    6.97393136307920
H         6.73130495436409   17.05940599283752    6.97190596476312
C         6.24713379330262   15.30657795785660    8.11425293969968
H         5.91627371606358   15.88982895829377    8.95926306121041
C         6.21551896675577   13.93835026536855    8.14916038359010
C         6.66076325827091   13.14466561479934    7.02503030045815
C         5.34376016886803   13.84326264407253   10.35532615877201
H         5.05980775357652   13.05626676375075   11.05225807321079
H         4.47369480381341   14.47841207988465   10.15371815884503
H         6.13877628533285   14.45150408027819   10.80114113602496
C         7.82719610762202    9.04986712884597    7.84638151933105
C         7.80109440354789    8.26398662066469    9.14689051280763
H         8.80559599673906    7.94431804608610    9.40730271354204
H         7.13304309561406    7.41196007650500    9.05760334331752
H         7.42340377713085    8.92015943649336    9.92791173924769

