97
CSD_code = POTLIU | q = 0 | S = 0 | Stoichiometry = C37H54CoOP3Si | MND = 5
Co        8.22884966164566    3.02752839173634    9.10596750721857
Si        9.94267260153826    4.42177486154616    9.33008993143628
P         7.13520960011909    4.73315023265314   10.23419481931225
P         8.70164839764236    3.34745374421419    6.85949210852461
P         9.63320646614658    1.64473494974434   10.32772685370266
O         5.99229607043196    1.20271742570585    8.81515405784624
C         9.64134379912104    5.65224186154412   10.76243792767699
C        10.62114265079733    6.38365352682291   11.40761120018079
H        11.63736354888754    6.35071857301287   11.04263034371649
C        10.31491654064113    7.13584219844905   12.52944953137855
H        11.08488109627169    7.70570882940023   13.03012083411638
C         9.02213782896002    7.13637131226859   13.02453218135912
H         8.78406942859020    7.70196098774261   13.91452376517366
C         8.02914202502038    6.40982386123899   12.38770811498260
H         7.03373635680660    6.40757384981479   12.80775489444659
C         8.33123514635870    5.67616508094750   11.24765554453876
C         6.30844222778705    6.18378735719328    9.36340578105069
H         5.56866406247771    5.72672042158211    8.69492757213471
C         7.34271741210004    6.91078239660743    8.51378736118575
H         6.86556480620425    7.68135662777633    7.90894423599184
H         7.85074657500849    6.21669927460258    7.85121594969418
H         8.09309072043404    7.38680481558385    9.14339362498803
C         5.60457707342606    7.19307849813285   10.26597337541442
H         6.31119199775906    7.65275542400842   10.95317280497739
H         4.79031271288208    6.75206973887803   10.83403597740590
H         5.18311520445073    7.98341118704765    9.64481730256282
C         5.78145163425522    4.25753688712927   11.43761020864694
H         5.54267425017940    5.12528906096501   12.06107570702952
C         4.52512496590819    3.81986933449120   10.68981051613747
H         4.74860464428851    2.99349358547007   10.02084386133852
H         4.09959105026923    4.63066492746457   10.10299321355527
H         3.76971099047093    3.48326879373924   11.39945689254731
C         6.28613991962812    3.13266681309959   12.33144673601583
H         5.48642454786405    2.76349549865268   12.97265622713194
H         7.10298893077544    3.47719886271881   12.96203873071597
H         6.64434612750525    2.30819449512699   11.71432798280104
C        10.21784088470885    5.43309069109399    7.73072737263079
C        10.92802124914972    6.61608233424821    7.64446524777246
H        11.45609893335248    6.98468583441683    8.51179922445468
C        10.94672788785490    7.34217255264296    6.46525767898853
H        11.50361745674858    8.26644965500496    6.40328299936961
C        10.22835113489770    6.89323055166267    5.37038523950662
H        10.22010526271927    7.46929487733875    4.45565398402379
C         9.51279055010353    5.70902695208661    5.44139240733147
H         8.94111757199552    5.39293395599174    4.58086893009752
C         9.51517739507779    4.96798734670880    6.61616932439348
C         7.26600793019879    3.36747469082516    5.65722655684056
H         7.61394839543452    3.76817087519417    4.69956147752414
C         6.17506218464946    4.27773246488187    6.20517049560139
H         5.28463674879831    4.23021476645319    5.57918930840168
H         6.51604799323800    5.31016353060059    6.24258164572520
H         5.90746264132437    3.96079331758381    7.21357355385672
C         6.72304180930482    1.95789478189146    5.44011668116674
H         6.41629421008756    1.51816067165063    6.38498181691302
H         7.46222227500106    1.30487149274925    4.98187699220903
H         5.85141678420243    1.99323393623033    4.78695459858783
C         9.92153635177492    2.27834427682789    5.90357140005988
H         9.53895701290347    1.25535829927594    6.00494378263505
C        10.07973535458846    2.60393680335656    4.42117149306791
H        10.44629584506808    3.61909589249794    4.28741881382650
H         9.15531093168870    2.48234305238941    3.86361518747774
H        10.81617452685305    1.92531474574612    3.99081414018236
C        11.28455475148665    2.35358987490674    6.57944567331516
H        11.97766768742564    1.64986887083558    6.11939006069263
H        11.20198747368717    2.11696983899701    7.63594839447545
H        11.70436746918693    3.35449746502465    6.48979137849458
C        11.55656473856656    3.46828667679997    9.70787571910519
C        12.83609596088023    3.96377531343344    9.53879016660772
H        12.97383937787325    4.99650780269389    9.25333799484349
C        13.93792085251710    3.14194814210092    9.70786169043132
H        14.93608140037213    3.53447790404153    9.57424679655490
C        13.75687400584988    1.80666159602027   10.02501993496771
H        14.61302642776676    1.15566273574965   10.13387883861527
C        12.48076462880573    1.29605816921539   10.19882331802148
H        12.36578668856529    0.24538013225858   10.42254833204703
C        11.37689453004582    2.12662394917546   10.05406851592748
C         9.59992102323474   -0.19008365346033    9.95409070808836
H        10.47129919562107   -0.65998297565192   10.42167563059346
C         9.68218785089771   -0.39004087597666    8.44673668568904
H         9.56349848660987   -1.44263097064299    8.19187909655285
H        10.64122823019330   -0.04813536065395    8.06344076010000
H         8.88830339576378    0.17652229301989    7.95931794610133
C         8.33093062644929   -0.83248744455637   10.50711449550955
H         7.44898115067844   -0.35200870560402   10.09303747154025
H         8.28144933216042   -0.76436307338402   11.59142366427000
H         8.29969770524693   -1.88664895474593   10.23253639606592
C         9.64794717920378    1.59877972910615   12.21007752164881
H         8.62103694987543    1.33695035170570   12.49312600564426
C        10.60857362358686    0.59986011732358   12.84881699368256
H        11.63652293170616    0.82585738856266   12.57482525390106
H        10.38552405996760   -0.42862019153522   12.57925642535580
H        10.52801571781597    0.68148536860385   13.93277084951384
C         9.95395262979153    2.99371238353958   12.73978098250683
H         9.85255872185684    3.02047892657005   13.82435352849132
H         9.27426184730024    3.72380761804662   12.31103311224518
H        10.97079196723985    3.28858488283450   12.48443694552842
C         6.88476098739578    1.93203263918517    8.93108868331172

