44
CSD_code = POTMUJ | q = 0 | S = 0 | Stoichiometry = C13H20HgI2N4O2Se2 | MND = 4
Hg       10.73181668649829    3.29693323095142    8.57998511110128
I        11.63093249945833    4.80062333180683    6.62726528216946
I        11.07071703942626    0.98090205628545    9.83545704946540
Se        9.18609186058732    4.95726472740980   10.44351246617751
Se        7.84900892853151    2.40032843733211    7.17283984073302
N         6.47135670202692    4.19882074934558   10.04192839038619
N         7.18167240536592    5.55380780337775    8.49480497340388
N         7.19970087811136    0.31816223061577    8.98790057901090
N         8.63790038855714   -0.32807859975335    7.48694597526138
O         6.64216974419179    8.33589496345870    8.29030419385452
H         6.60893428083266    9.23971165466738    8.61823587011121
C         7.12860619841846    1.96241731800403   10.80897952735050
H         8.12483407515016    2.17681806243023   10.41537653667685
H         7.25799728996837    1.36932461529170   11.71359601974832
C         7.90917836050368    0.71851922409329    7.91386423713158
C         6.33795796301371    1.17780839847476    9.75572815984570
H         5.56051128368674    0.56741779611699   10.21955806093702
H         5.87401754335781    1.87284805940114    9.04771576389151
C         7.54496093508866    4.88247527340314    9.59932874882736
C         6.46873617576756    3.29531468945870   11.16532574370808
H         5.43489960634367    3.14908300017441   11.48483271616040
H         7.03710249528184    3.76140944151471   11.97615338644197
C         5.86876784187062    5.29418271761005    8.23590394714897
H         5.36399044550384    5.73281007137849    7.40085570769983
C         5.42543817325890    4.44587253609614    9.19398177549739
H         4.45776902629065    4.01308595699499    9.34454311473154
C         8.01169708302051    6.46586986062121    7.75482569350806
H         7.64686259963828    6.50478951948126    6.72757656380701
H         9.04232809175409    6.10402490348743    7.76178823572685
C         7.50647712732474   -0.98806096828547    9.25027864256460
H         7.07611236815367   -1.51743746693402   10.07428753601044
C         8.39449589742654   -1.39124887069356    8.31283371084191
H         8.88230105039163   -2.33352822000630    8.17683209288921
C         7.96672506048230    7.85834342212365    8.38118897748319
H         8.28736330150438    7.79368567383028    9.43117794653081
H         8.66424900218423    8.50673560648680    7.83748887802185
C         9.53012339395773   -0.35422907628657    6.35552525122055
H        10.36788214037861   -1.00720152059249    6.60523628620766
H         9.90764113597401    0.65801637185074    6.17698767383378
O         8.18412671423031    0.16235432751702    4.36401921231448
H         7.70735139001317    0.75510742345577    4.96023552921309
C         8.81793823034385   -0.85071373985100    5.08490148323192
H         9.55502773975552   -1.28128760044862    4.40269510017114
H         8.10182884637368   -1.64107739169749    5.36819800895396

