36
CSD_code = POTMOD | q = 0 | S = 0 | Stoichiometry = C11H16Cl2HgN4Se2 | MND = 4
Hg       -0.27589607931617    1.72519865017376    7.79264020956015
Se        1.36930918495286    3.29283862346976    9.55094750817473
Se        2.15901706261209   -0.02405496973173    6.79829731008296
Cl       -1.90709622970169    0.20448272044773    8.21105500442224
Cl       -0.27564038249867    2.95657515597801    5.79030674122429
N         3.95882695587483    2.59014668467430    8.54603401892429
N         2.74076546299458    1.85640465732548    4.74984786989735
N         3.13298354736352    1.06566842338015    9.86264425248930
N         1.06252385500075    0.56571520682325    4.24854330818578
C         2.88135540345519    2.25201531545390    9.28234449555140
C         3.79742911141678    2.46747297852315    5.51278574226733
H         4.55676344344885    2.83750819658129    4.82009939999072
H         4.23190510392320    1.67428951170261    6.13048630419714
C         4.88579600503352    1.59137740816010    8.65499451502462
H         5.83408490041073    1.63665723720357    8.16010516757932
C         3.26193270445993    3.59397433686594    6.40740859242304
H         2.22108114657772    3.37528635169600    6.65954890600876
H         3.26799760671192    4.54217066333029    5.87094580431235
C         1.97066211511786    0.84601618163338    5.19136831647941
C         4.05842473201937    3.75743702847339    7.70441728449400
H         5.11564383388157    3.93317448656311    7.49369945425799
H         3.65128274651803    4.60847302440646    8.25835969598254
C         4.36894030190552    0.64123051410680    9.47204322580495
H         4.77684116482592   -0.29492146021972    9.79245722476058
C         2.27146835393442    2.24930715906793    3.52797533081970
H         2.71171379421871    3.05934653306074    2.98505725590230
C         2.19926599077024    0.32670037993891   10.66446863096091
H         1.63748403581374    1.01605211728794   11.29602870044222
H         2.73619848551503   -0.38977161678587   11.28156476780692
H         1.49552072297911   -0.20898443097055   10.01763822796113
C         1.22685770518936    1.44496110558756    3.21812305971625
H         0.59074373160212    1.43439467322650    2.35759713461321
C         0.01178128410396   -0.40233995805431    4.38421889841401
H         0.40395156885392   -1.30170416304842    4.86064429396633
H        -0.38948427207622   -0.64435983669468    3.40306637490023
H        -0.78703509789624    0.00086111036399    5.01543697240569

