53
CSD_code = POTNEU | q = 0 | S = 0 | Stoichiometry = C26H22Br2S2Zr | MND = 12
Zr        3.32847104969132    5.33666734360305    4.55977318087887
Br        7.31309303190748    7.25485598275901   10.46625124521103
Br       -1.43696249134291    3.43334810449920    0.30977180985553
S         4.86196768714525    5.78622521679203    9.16945400856630
S         0.25004922726495    4.57306856320787    2.70337690385454
C         3.59450488877628    4.99704136029074    6.72141927651963
C         2.54657759094875    4.32341037483766    7.30154698937368
C         2.45457547828659    4.10162450965115    8.79269693352251
H         2.29065467056378    5.07968647384524    9.26220668250743
H         3.41616490686129    3.73212661445102    9.16294578150721
C         1.35018359286151    3.15103928184321    9.24230133111242
H         1.65114592084233    2.11728970284858    9.05702507983085
H         1.19297495158272    3.26476326856800   10.31651097377067
C         0.07286914043050    3.44366392853747    8.47169788110425
H        -0.18398925745805    4.50091492834609    8.56554712217399
H        -0.75837711695667    2.85495630785478    8.86461826267532
C         0.31021510622161    3.09094242069768    7.00973376270980
H         0.51499473687224    2.01676928742874    6.94650364854057
H        -0.58331431749235    3.28893937203783    6.41239592827432
C         1.48263269972804    3.84480692485382    6.42048441216471
C         1.57767113878521    4.11997408467335    5.08661325961537
C         4.68632219354228    5.58988048541654    7.41464863067980
C         5.78521662076492    6.16903319055559    6.79620496116708
H         5.91517477873363    6.17187218355457    5.71943291028865
C         6.72611597109890    6.74324018962282    7.66334052970557
H         7.63162812601947    7.22860976489576    7.34561889034993
C         6.35898917663211    6.62172820551841    8.97023137335092
C         0.69624990815923    3.57866905085442    4.09323020294284
C         0.20558918829867    2.30356919419034    3.92275841379801
H         0.39078568070755    1.51263199394523    4.62625907557451
C        -0.50787212769699    2.10323378138199    2.72672503636610
H        -0.95609085905238    1.16919962522410    2.43919991553297
C        -0.56915008148365    3.22939493782094    1.96757074768598
C         1.56929382443325    7.07607294555096    4.39428720112110
H         0.50422960382269    6.88741383403918    4.45580474030715
C         2.33534720762256    7.14394840484916    3.20570422572526
H         1.95259185404261    7.01571787860891    2.19902416559784
C         3.62540256380914    7.61008927586165    3.54790055483924
H         4.40090819706171    7.90006746540975    2.84742337460704
C         3.65951878197093    7.82131502374696    4.94214583131598
H         4.46001347543599    8.30069453690939    5.49196061948502
C         2.39115263986236    7.49097555636635    5.46676674319903
H         2.06701391174922    7.64522276562533    6.48855488356128
C         4.46721075713596    4.78558879013854    2.38269963055205
H         4.42195799610772    5.37332834466802    1.47308031733754
C         3.65589639358295    3.67318527631175    2.67949806925628
H         2.88245760429299    3.26675660057469    2.03945877603207
C         4.15057090692844    3.07051713644363    3.85783515020975
H         3.80485908348660    2.13876389866724    4.28901905761764
C         5.27086921120316    3.81406761993581    4.29163901867129
H         5.94000709387185    3.53022471910518    5.09603336801284
C         5.46409324708543    4.88042324223633    3.38056791119469
H         6.32524443525517    5.54035003033918    3.34620120014533

