90
CSD_code = POTWAY | q = 0 | S = 0 | Stoichiometry = C40H39N5O5Zn | MND = 5
C         9.06331423595450    4.49096439281488   -9.50816900076474
C         9.55865831859253    3.40585286017923   -8.77884915412361
H        10.31978483596155    2.77624687519948   -9.21655072956250
C         9.07355405372077    3.15072655720534   -7.51496415612267
H         9.43854373133596    2.32116891749362   -6.93164907074361
C         8.09046297802582    3.96904869196672   -6.95907431796223
C         7.60057599619683    5.04922606396489   -7.69193795305076
H         6.83917271562340    5.67415484710417   -7.24898638884265
C         8.07904282995972    5.31397822535787   -8.95708916467319
H         7.70213476732233    6.15031188445265   -9.52836773961544
C         7.56222812980601    3.70795755654816   -5.60346701430317
C         8.03858309106612    1.53587278653884   -3.02122455650649
H         8.82608639214193    0.91885205109761   -3.45681005149081
C         7.59862910541922    1.22010322287396   -1.70489686758701
C         8.21746654505072    0.14515330521162   -1.04651533046814
H         8.99046808895524   -0.39763194299454   -1.57180230895232
C         7.87931513357120   -0.23392550877026    0.22718702349643
H         8.37082754824560   -1.05915067821581    0.71548813286522
C         6.88182204827458    0.48450795588749    0.88979714560762
C         6.24129283454248    1.53622041682992    0.27977518940935
H         5.46960076557545    2.07380897121477    0.81055431544182
C         6.56791176035536    1.94788546998392   -1.03284875604913
C         7.36433706745190   -0.06207535296875    3.14411112447669
C         6.72705356780633   -0.49556093747321    4.40581542497513
C         7.53292172622320   -0.64746463775550    5.53629734066577
H         8.58873487466734   -0.44213972450208    5.44756697314522
C         6.98803002657455   -1.04845549412099    6.73152513177488
H         7.59641535656806   -1.16840315179058    7.61396068734047
C         5.61699519821204   -1.31332257989927    6.83239808015555
C         4.81130821009036   -1.16606673378018    5.70425907238798
H         3.75221710206681   -1.36570194242855    5.75212496978855
C         5.36540195327734   -0.75980555862464    4.50531535279956
H         4.73699535294552   -0.64760168914044    3.63547775376199
C         3.81503451064024   -1.99869274308453    8.24676428605098
H         3.51129213661644   -2.81989946894994    7.58314130776280
H         3.20162776365137   -1.11559733059819    8.02012176711625
C         3.62693493272055   -2.40613254868831    9.70503580894725
H         4.03120750716124   -1.61461713303929   10.33804184291484
H         2.55782060561149   -2.49476348153512    9.90003903202383
C         4.34034362547705   -3.72054027256201   10.01719579146302
H         5.37010863606702   -3.63917330896541    9.66478858392672
H         3.86008885908993   -4.53256298357016    9.46576575089264
C         4.35510504370830   -4.05831208221062   11.50735563134927
H         4.98250098925448   -4.94040996105973   11.65627870780400
H         4.81180278938245   -3.23365969207294   12.05912659670843
C         2.96813794409610   -4.34252282020684   12.08030699074829
H         2.48515440411059   -5.12246533140269   11.48655579271631
H         2.35060048822597   -3.44479829137559   12.01637466584565
C         3.03815155996576   -4.79126184532775   13.53821544423306
H         3.64298212670819   -5.69843809871251   13.60925840733680
H         3.53391181871870   -4.01793540180378   14.12987836102676
C         1.65447535183713   -5.06261860164573   14.12386094828807
H         1.15512889189286   -5.82991415112879   13.52760243943870
H         1.05237611010321   -4.15300042804653   14.06229697677965
C         1.73154563690259   -5.52063820555029   15.57502553784568
H         2.30474256906456   -6.44184350747751   15.65414768975344
H         0.73599087379291   -5.70063928612992   15.97413379809047
H         2.21572777908605   -4.76386026791775   16.18851310450128
C         3.65903238800390    4.45550504823348   -4.77607412133054
H         4.40047834719873    4.73183442499348   -5.51052952994777
C         2.30328227090601    4.55701925320591   -5.03936440241063
H         1.96313426689494    4.91954260709130   -5.99662119268968
C         1.40257938981378    4.18272234251428   -4.05496065738781
H         0.33812390598487    4.24592313593524   -4.22664570021263
C         1.90093027134680    3.72350579393092   -2.84613852950753
H         1.23896605499122    3.42005160979897   -2.05046211737069
C         3.27304938695717    3.65479550791356   -2.67237881994252
H         3.71487894338514    3.29835227792784   -1.75429760622426
C         7.09415159073723    6.71935637147228   -3.14146027756550
H         7.07537584802348    6.55674017095695   -4.20888234362434
C         7.50622434485622    7.92467161793561   -2.59874904387868
H         7.81761443328102    8.73087139511692   -3.24409674670762
C         7.51302525761775    8.06772036247749   -1.22026589911495
H         7.83189578184439    8.99229530029101   -0.76213956953703
C         7.10273507394433    6.99541869265711   -0.44415168688841
H         7.09166493371133    7.05879542150291    0.63243757262116
C         6.70772594409704    5.82790722281943   -1.07514486736671
H         6.38284629285643    4.96277901658304   -0.51691713907727
C         9.55635584009240    4.75667365619218  -10.80414456250316
N         8.09607614077324    2.69021627465773   -4.97289906841047
N         7.57279626853285    2.50727325426622   -3.73569157339007
N         4.13479733634101    4.01272588432476   -3.61771177348787
N         6.70406507479814    5.69112789141604   -2.39642422820811
N         9.95750088563432    4.98085289108905  -11.85542010829397
O         6.64696888429078    4.46907343470669   -5.13868703883682
O         5.92756353761530    2.94833867858546   -1.53899167378192
O         6.45681724144118    0.13044485056432    2.16608502701486
O         8.55002404837105    0.11949066178684    3.01410818824759
O         5.18395628380591   -1.69807560044771    8.05361840681903
Zn        6.20948443641868    3.82231267308473   -3.26177533787738

