58
CSD_code = POVBUA | q = 0 | S = 0 | Stoichiometry = C25H21N7NiO2S2 | MND = 6
H        10.91349770529166    7.55779350869815    5.06169963200748
H         7.03870584634866    1.76469818345016    1.04708512328388
Ni        9.05719320816810    4.57504642727841    3.08903032136493
S         9.05141682482066    3.57736460592023   -1.08287492344549
S         9.06090383157150    5.57948194389683    7.25946232629438
O         9.50596778100501    2.37595085842200    2.91438570608523
O        11.25233478109657    4.72600320024287    3.68850415902713
N         7.28273785041382    5.97411860389941    2.77934692700161
N         7.23055053246932    3.45277537201633    2.19597729328212
N         8.59737840063456    4.37151200892792    4.81619211961063
N         9.50952760090609    4.78488451723880    1.36176067521435
N         9.54715191059078    6.72606981863282    3.77017201992049
C         8.76185250678239    1.72022166300168    2.21318788072823
C         7.35710739781201    7.22853630336938    3.21588826350043
C         6.27469354504833    4.13454758166115    1.68700665044171
N        10.72201730731594    6.81242034454908    4.39588100133263
C        13.99284164343580    6.47531701486953    7.11140478645271
H        14.00486359237378    6.93290218316090    8.08926029475774
C         8.69592002956024    8.76822192075957    4.82358585351225
H         8.96464413982943    8.43647718536817    5.82839449139769
H         7.75236679663584    9.29626995400212    4.89324365866921
H         9.46090911000720    9.45987322357289    4.46852160653526
C         8.15655577241413   -0.58290120122373    1.38056201857748
H         7.10632721943462   -0.39289546094495    1.54961252380998
C        10.46415773721888    0.09587495362186    1.51857491242075
H        11.18725851280299    0.85514626817648    1.77358669261699
N         7.52259530652167    2.20307330682449    1.82817815756717
C        11.54173088813411    5.70129967221106    4.35076630339454
C         8.59896841109729    7.57151595496911    3.92345634097048
C         6.30267401416954    8.12227832112945    3.01310336129279
H         6.38220947987802    9.15842753797422    3.29865312316113
C         6.19081966581835    5.51981274399607    2.17081149858966
C        12.78837062036109    5.81410142021786    5.14107249497314
C         5.06831586306511    6.33504719883382    2.00621338889832
H         4.15537383601808    5.95227362963873    1.58000353628721
C         9.11128801479620    0.38260906952183    1.69260969531634
C        13.95272564401710    5.24892779077084    4.62638347011818
H        13.91224970122467    4.76245973016303    3.66402858320147
C        12.81035670830675    6.41874756040510    6.39565720338028
H        11.90054219432992    6.79438817350939    6.84137198343709
C        15.13338449722319    5.32275089708900    5.34076084540962
H        16.03654059446683    4.89248715993220    4.93482011275913
C         5.14387878897821    7.65386425158007    2.41868792470747
H         4.30182137487639    8.31527854625479    2.27724900444789
C        10.85493109097146   -1.13089963448057    1.01751490802486
H        11.90308700402865   -1.34572591896507    0.87449705214298
C         9.90138307865173   -2.08504853125920    0.70023802298322
H        10.20522644176134   -3.04470093191657    0.30939533102352
C         5.35995983552594    3.61465111452983    0.61708448248137
H         5.95949863125761    3.24972095005101   -0.21924916858512
H         4.70584357057284    4.39136036787115    0.23847860198417
H         4.75011066627360    2.79228694034660    0.99303451162254
C         8.55589395145878   -1.81266847966391    0.89029712662574
H         7.81513996370733   -2.56258398801195    0.65540457688058
C        15.15551086580514    5.94007997308869    6.58140925096974
H        16.07662994100327    5.99221442552022    7.14258730869686
C         8.81854755796974    4.88074445758359    5.85288971563729
C         9.32101021374188    4.24841530771298    0.33183923720566

