45
CSD_code = POVHUE | q = 0 | S = 0 | Stoichiometry = C20H21ClNPPd | MND = 4
Pd        2.39651445033816    1.48832577015173    2.79099175166769
Cl        2.81674270188279    1.02951446853347    0.63160297467237
P         2.29649109342557    2.30292315772058    4.88593328224953
N         0.57254098125807    2.63637297202827    2.21473659374096
C         0.11183206001315    3.75082062937400    2.78348024104988
C        -1.18003272830306    4.20495629463234    2.54612680286401
H        -1.52608358423081    5.11310174641653    3.01635798544622
C        -2.00845236985210    3.48521758019786    1.70119663733728
H        -3.01330447910666    3.82528865443059    1.49907831804131
C        -1.52098079215926    2.32388907102929    1.12400949692648
H        -2.13071346711216    1.73084287309214    0.46139351358353
C        -0.22245084969253    1.93526604545749    1.41018016716885
H         0.21182345256014    1.04313171071953    0.96503539626141
C         1.02951436492525    4.46701218660066    3.73314943468055
H         0.67169063673897    5.48535683849713    3.89596354360155
H         2.03533463182855    4.51354544483864    3.29330401271150
C         1.09652120888249    3.70867305480502    5.06929226140611
H         0.10445264139593    3.33904432810649    5.33930888343226
H         1.44868464452213    4.36867396035769    5.86703121934501
C         2.09668147270640    1.37263014734377    6.43450496152782
C         0.82319346779783    0.98005792597470    6.83878316784419
H        -0.04105808577973    1.28420332258766    6.26359342776420
C         0.65736995474229    0.19204002943456    7.96201117475198
H        -0.33508981419309   -0.09993776875444    8.27306011985479
C         1.76269824062050   -0.23109067020829    8.68226032508445
H         1.63264314435618   -0.84786357085139    9.55892995437960
C         3.03475894735052    0.12550227532883    8.26623391427766
H         3.89907452732436   -0.21849477925623    8.81512571056942
C         3.20414094167884    0.91634241792985    7.14459154197316
H         4.19864170703001    1.18527832050057    6.81645514141192
C         3.84008282335149    3.24828131396856    5.12417744910549
C         4.16375589421385    3.86216308814150    6.33097545991311
H         3.51668220703452    3.73855949533127    7.18939639099383
C         5.31732412242638    4.61719914546304    6.43541769355643
H         5.56949979346024    5.08630392271072    7.37536987051419
C         6.14856967621611    4.77436522887332    5.33721032150405
H         7.04844898294009    5.36501542455957    5.42413447730486
C         5.82600058525631    4.17555752887082    4.13049355353287
H         6.47185107967555    4.30045831828796    3.27431302797061
C         4.67533846952689    3.41399374370063    4.02232825829966
H         4.41331213319903    2.92885310282124    3.07354173814901
C         3.83424735184055    0.10958762951047    3.28922397489468
H         4.21226931014007    0.21149201439738    4.31309888933207
H         4.67342179611883    0.14490783984690    2.58845027031853
H         3.32391667364816   -0.86026223350970    3.18584666897927

