71
CSD_code = POVLIW | q = 0 | S = 0 | Stoichiometry = C30H39PZr | MND = 13
Zr       -2.27817443477892    1.97582375296956   -2.92978391699409
C        -2.59521685231978    4.15023613153234   -2.81100302210269
C        -1.99246883642533    1.43856829876979   -7.60122430741205
H        -1.52597589074471    2.29225829810677   -8.10122468754922
P        -1.22450784512978    1.20385594290639   -5.88338551123510
C        -4.55042663608505    1.66735563243838   -3.96270012139942
H        -4.90009330891319    2.19609958266206   -4.83919785204761
C        -1.63538366042139    4.65823825930538   -6.41885533897054
C        -2.31674538617504    4.80263754787525   -3.96500415152097
C         0.15545567986778    1.50466345503628   -2.58653814670420
H         0.91777052425922    1.55186243102030   -3.35114373404608
C         1.06410650060544    1.98942985369831   -7.59003606866786
H         2.13418210494051    2.19924518177450   -7.57041272677829
H         0.54733422477175    2.91054614762265   -7.84157450253429
H         0.88496308117753    1.26218768038343   -8.37733231901591
C        -0.34628633207010    4.94103587965247   -6.86014588255945
H         0.49301784577671    4.67401434683576   -6.23292260980736
C        -1.64205204705435    2.66275359130433   -4.88791470477954
C        -1.84477464770646    3.97987924272768   -5.11565041561552
C        -1.06890169157859    6.98943564937135   -4.18130460429805
H        -1.19123038563811    8.07134549222556   -4.18858337011005
H        -0.49650828779748    6.70545128432094   -5.06024584367372
H        -0.49625565516736    6.70957019226468   -3.29944383770467
C        -1.21569845926433    5.92326283500540   -8.86917233136488
H        -1.05338008373989    6.40948275846116   -9.82000510531822
C        -3.93934346626371    0.39377815571097   -3.94098253122987
H        -3.73700312895336   -0.23182982394432   -4.80201962555917
C        -0.53497336456579    0.34327143419557   -2.17435410231257
H        -0.41029508155460   -0.65029148757394   -2.59242465556488
C        -4.32646590402241    1.02922217687510   -1.78160517754727
H        -4.47071054986119    0.98176159562272   -0.70741520631351
C         0.63956928231397    1.45541313973871   -6.22786105111510
H         0.95181725450430    2.18351937375745   -5.46681350819915
C        -3.48264516391618    1.71559567615149   -7.44072635667283
H        -3.92841715194686    1.95789429464929   -8.40490700610785
H        -3.64230521257647    2.55142215002390   -6.76370825356437
H        -3.99441593787408    0.84185015462591   -7.04002662054643
C         1.33588134235050    0.12202411344319   -5.95374743172514
H         2.41895955560773    0.23497667226246   -5.99597838732237
H         1.04138940716113   -0.61707638173856   -6.69659848320270
H         1.06658706822334   -0.26258805179742   -4.97117872872970
C        -0.13778746070682    5.56976285714030   -8.07571306686492
H         0.86939154789493    5.78471759077567   -8.40446556248668
C        -2.50345430168501    5.65976946445936   -8.43276004232181
H        -3.34898665412301    5.94341617084207   -9.04319419470471
C        -2.71253952822188    5.04147870856843   -7.21362024916953
H        -3.72124842331142    4.85205055269998   -6.87256309602853
C        -3.13111968511046    4.86831264840895   -1.57854787610679
H        -3.93650407388986    5.56217140644982   -1.85687463069232
H        -3.56462694125812    4.12943878143022   -0.88499204996300
C        -2.43525483383224    6.29938035219637   -4.18286932797165
H        -3.05507128150361    6.73659002183909   -3.39871917335518
H        -2.92396230355631    6.50078496689800   -5.13924471609212
C        -1.26095184581797    0.66545148837578   -1.00797854049621
H        -1.78282473496919   -0.03889116573695   -0.37103925055971
C        -3.80594949645048   -0.00094764391103   -2.59461536779119
H        -3.49207159641021   -0.98222477759763   -2.25697874302225
C        -2.05913975133626    5.65315892641429   -0.81196308590661
H        -2.48366918853256    6.08506048998090    0.09336214667429
H        -1.66170402845775    6.46017679487829   -1.41979304108077
H        -1.23780030165443    4.99816127972866   -0.52843791320097
C        -1.04716379886539    2.02628214970747   -0.71626039033073
H        -1.38853031730346    2.54023589461279    0.17514603179957
C        -0.16480915661668    2.54689020529880   -1.69024037750826
H         0.29253781081579    3.52896424491856   -1.68715810464673
C        -4.79226176711469    2.05673958121796   -2.62733922845917
H        -5.36239874023431    2.92542080171554   -2.32200606031872
C        -1.79725783425974    0.16628803809222   -8.42102445996025
H        -2.25194207417169    0.27652765482476   -9.40506747286904
H        -2.27059914563957   -0.67631754931308   -7.91874384446023
H        -0.74597856269807   -0.07253259518980   -8.55684607417701

