100
CSD_code = POVMUJ | q = 1 | S = 0 | Stoichiometry = C51H42ClN2OOsP2(1+) | MND = 7
Os       17.13027766016052  -10.05192688962330    3.43735847201460
Cl       17.15770107550615  -11.88483995528870    1.97591190935074
P        17.24585617702409   -8.77787080688640    1.37471443425339
P        21.37627360305393   -8.72095125399682    4.81178878741584
N        15.06043830275395  -10.38796636491841    3.55500934931288
N        17.01034548577096  -11.63889465804133    4.77410266023844
O        19.33780758512388   -8.64182396210134    6.76507125588591
C        19.12761351427166   -9.77316728926118    3.41731656515268
H        19.82726097231896  -10.00235016283337    2.60956820284818
C        19.66410317457015   -9.18567347012432    4.51972648345969
C        18.83434450440991   -8.91040059397042    5.68101732249324
C        17.38540248918804   -9.01732253252532    5.39700382303718
H        16.76815204263174   -9.36294874094319    6.22469709459771
C        16.82890658014010   -8.14075436587794    4.45128264300184
H        17.45860340731236   -7.33996409079890    4.07617876608522
H        15.78904136899943   -7.85465304066766    4.57705648474566
C        14.72134750645549  -11.55967702734720    4.13062003207219
C        13.40216370077830  -12.01645647482578    4.12284926952890
H        13.14673574464332  -12.95840819744436    4.57812329589535
C        12.41971420020129  -11.25382742120606    3.52338536819021
H        11.39832806855672  -11.59880702981542    3.49612839367391
C        12.77365419184825  -10.02948323401210    2.97004750074305
H        12.04023850196105   -9.39047421228976    2.50654897100423
C        14.09823914250429   -9.64448365568459    3.01490272421779
H        14.40578013925797   -8.69755775475674    2.59157966385068
C        15.81951214282835  -12.27279326324222    4.78182918793082
C        15.67290283231724  -13.51840903129002    5.39557835325399
H        14.72203206151507  -14.02358790442266    5.37982498174181
C        16.75792761840405  -14.11248744051715    6.00703733127637
H        16.66117665453248  -15.07836707814120    6.47688694884952
C        17.97505078741240  -13.44305161583661    5.99838163849254
H        18.85090338647426  -13.86737766285393    6.46094406735468
C        18.05015039954095  -12.21671951953584    5.36864668706791
H        18.98593233527040  -11.67465235764374    5.33375184265243
C        15.73889426821065   -8.69829409853097    0.33386341890155
C        15.27830671458498   -7.54221118404725   -0.28902420819019
H        15.78654011954386   -6.59895286116190   -0.15207090619878
C        14.15752202849121   -7.59112315966174   -1.10018826891790
H        13.80777989887993   -6.68774494548496   -1.57730410660214
C        13.49111949046724   -8.78699285812217   -1.30614347773366
H        12.61787921292536   -8.81685185809953   -1.93971412075628
C        13.95737028098328   -9.94520979041665   -0.70569186972656
H        13.45327602217261  -10.88490563844192   -0.87441514539991
C        15.07407841274462   -9.90240626410736    0.10740749499966
H        15.44660148761651  -10.80825580979951    0.56370803242451
C        18.42616711628185   -9.22086008710622    0.03625541483956
C        18.49259617115573   -8.34141199644320   -1.04581538220931
H        17.86447260093363   -7.46231197269182   -1.06718946438547
C        19.35789299993959   -8.58218106415354   -2.09425718220875
H        19.39781276264520   -7.89276388894455   -2.92419854426147
C        20.16626882455470   -9.70820567819711   -2.08435592764972
H        20.83984273340731   -9.89805120320707   -2.90627554286449
C        20.09194674580759  -10.59276087800441   -1.02425411152583
H        20.70146317559914  -11.48392695887467   -1.01928597425408
C        19.22717009702340  -10.35434275621017    0.03166906705231
H        19.15736974804352  -11.07198353061724    0.83181487709360
C        17.73104116576037   -7.03027095660290    1.61208649892031
C        19.06788505834302   -6.66029474467146    1.49697024174774
H        19.80592907171429   -7.39766352379264    1.21293273717731
C        19.45421736769152   -5.35255832789745    1.73431258029913
H        20.49174127319537   -5.07318615516526    1.62722228413533
C        18.51561742847990   -4.40320584343544    2.10379106246471
H        18.81744756022543   -3.38162505226684    2.27739408269683
C        17.18819131984935   -4.77073133429767    2.25647828256325
H        16.45510583664813   -4.03813213325650    2.55894665414753
C        16.80019073196051   -6.07758121764994    2.02365158865699
H        15.76717164207174   -6.36426342624719    2.16588727339417
C        21.43601798684242   -7.06888992172647    5.52608278180354
C        22.31492992438141   -6.75739946882718    6.55556783245174
H        22.97427183811432   -7.51599950341655    6.95263233374634
C        22.32578111897355   -5.47379264955609    7.07219475727620
H        23.00252238389220   -5.22559923817600    7.87534506922996
C        21.46726010728172   -4.51100737072783    6.56594742899580
H        21.47820120541143   -3.51271651946399    6.97573896498098
C        20.58834003711898   -4.82683379688111    5.54085145170217
H        19.91478901880539   -4.07848009982158    5.15113202715683
C        20.56727653985429   -6.10599968255943    5.01915224790066
H        19.87983054052214   -6.36703769975271    4.22459534831842
C        22.34230390878875   -9.87758127214034    5.81168242160223
C        21.74331246844496  -10.64026938249985    6.80884635532054
H        20.68912429842491  -10.52947199868829    7.01044140612965
C        22.51547905485451  -11.50964096711281    7.55922055853002
H        22.05451862610700  -12.09976478617062    8.33657926636679
C        23.87610414325540  -11.61797109682126    7.32015910147647
H        24.47420316949157  -12.29672691445155    7.90845981144068
C        24.47369998309706  -10.85269246253443    6.32998199314270
H        25.53462890171312  -10.93364309882839    6.14912613902482
C        23.71184671194742   -9.98290398021780    5.57247290962924
H        24.17147564409010   -9.38394687955868    4.79767915510568
C        22.12894440318913   -8.68672167164632    3.17024466808140
C        22.40845728721699   -7.49327183498351    2.51666344299643
H        22.27709503613804   -6.55338026626675    3.03400803034229
C        22.85892576061718   -7.51907013923015    1.20772064379094
H        23.07905233199103   -6.59351999903247    0.69771673032538
C        23.02478336830298   -8.72779939692954    0.55130016629165
H        23.36541039284494   -8.74205907398317   -0.47229473194004
C        22.76291385235160   -9.91987152970974    1.20866623768772
H        22.90696260592267  -10.86104035928495    0.70136751568088
C        22.31510810937601   -9.90366074720075    2.51630013412078
H        22.11840251488227  -10.82934593547146    3.04123993098446

