83
CSD_code = POVNOE | q = 0 | S = 0 | Stoichiometry = C42H34Cl2O2OsP2 | MND = 7
Os       -0.17572765923800   -0.95814301203621   -0.36519997393702
Cl        0.61941921024346    1.23706394376659   -0.87490267511754
Cl       -1.77367342038557   -0.84605980173624   -2.11476849024800
P         1.05676092081232   -1.77040244951352   -2.29971891553854
P        -1.50947829130263    2.04485178950179    2.95487043677203
O         0.85080009074632    0.74479338657859    3.37884062875403
O        -1.45261435955347   -3.60791106556198    0.29079135379406
C        -1.42925430038911    0.18905236440080    0.75234874380236
H        -2.33504757562982    0.63343977446545    0.33128847836290
C        -0.96603738327620    0.65746853634162    1.93806774611484
C         0.30005543705862    0.17765281183557    2.44621067686680
C         0.77526202986874   -1.04964390029076    1.73450278317621
H         0.48658642302327   -1.96260685773142    2.25757064672677
C         1.79979124870966   -1.08685641036631    0.81030998508054
H         2.32629905849144   -2.01830077743875    0.62966173372755
H         2.36464983513519   -0.18693792076342    0.59857476414871
C        -0.92379314464613   -2.61743867508784    0.03256376963861
C         0.44212167140266   -3.43815955289001   -2.69242075066260
C        -0.40770730706096   -3.67771365661910   -3.76529563263096
H        -0.67572690485414   -2.86879446400284   -4.42917366485735
C        -0.92539582058739   -4.94535603428420   -3.96596501921539
H        -1.58830302651172   -5.12576680790856   -4.79953946066574
C        -0.60547879342089   -5.97674902027013   -3.09972018021236
H        -1.01087000728818   -6.96488321040213   -3.26087712052678
C         0.21950028313880   -5.73659933379114   -2.01205395650650
H         0.45307424050173   -6.53427762231998   -1.32175678106109
C         0.73034636060661   -4.47065982062759   -1.80162860748806
H         1.34808169242263   -4.26898537554514   -0.93429543102139
C         2.87730434569537   -1.96283298602588   -2.22379344534905
C         3.57634801719548   -0.78057830300671   -1.98599139290636
H         3.02268597687205    0.14018010539951   -1.85024380923985
C         4.95613355000687   -0.78172964723696   -1.93194278021963
H         5.49055971525960    0.13883638625127   -1.74753387310214
C         5.65310292164460   -1.96566491892662   -2.11637695988524
H         6.73242934388518   -1.97156173689977   -2.07255409713610
C         4.96419039405117   -3.14047515504159   -2.36357707610440
H         5.50618427954786   -4.06270371356138   -2.51772019977514
C         3.58049644318831   -3.14366337894997   -2.42005394690567
H         3.05497613691822   -4.06573869276089   -2.62457814011465
C         1.03261325763078   -0.94451114876049   -3.93037147093074
C         0.47318428791983    0.30727262373363   -4.13912901317839
H        -0.01415611337590    0.82792411181176   -3.33011315055906
C         0.53309873189845    0.88923335688787   -5.39473265896890
H         0.09347564187776    1.86331344121322   -5.55118943998315
C         1.15044893898552    0.23025012117402   -6.44225132659236
H         1.19400013750477    0.68599203192450   -7.42102202673819
C         1.71831855383706   -1.01791384092087   -6.23490651272636
H         2.20503960992526   -1.53500131266456   -7.04957740081215
C         1.66613492333378   -1.60183272829382   -4.98528927328706
H         2.11314221020238   -2.57398593374025   -4.82231530484127
C        -3.11282048097232    2.56769099948896    2.30056119967795
C        -4.06522558219838    1.59739738000263    1.99203988594778
H        -3.84185852657603    0.55066474835071    2.14918555514572
C        -5.28880126666185    1.97481680966491    1.46989312425173
H        -6.02148339119897    1.22127843735113    1.22330405621008
C        -5.56752844863155    3.31495906696455    1.25391393739375
H        -6.52119192535391    3.60649507570999    0.84053841545159
C        -4.62175883186489    4.27995970585320    1.55940533002865
H        -4.83769063930995    5.32344541124554    1.38549155110102
C        -3.39428279533813    3.91077002623798    2.08049113640616
H        -2.65092984749244    4.66170245778645    2.30823494265782
C        -1.75163044329317    1.62122731118172    4.70281080585574
C        -0.69994282688857    1.74799166297709    5.60715170768160
H         0.26311915870717    2.09160274143408    5.26322130518718
C        -0.89132426292508    1.40931493554067    6.93367062078122
H        -0.07370756510814    1.50611770494888    7.63208236408853
C        -2.12288127786440    0.94408735311052    7.36664373970346
H        -2.26698111447818    0.67819152026754    8.40311535845409
C        -3.16991710833073    0.82029576231872    6.46840173507158
H        -4.13157320176776    0.46043583891815    6.80271977693102
C        -2.98952888128664    1.15794098322646    5.13901746366853
H        -3.81355472061149    1.06998955600371    4.44604684688032
C        -0.38975271314052    3.45449440036053    2.84009378341112
C         0.44183420767346    3.57498199774608    1.73252803219502
H         0.44326004321195    2.81900973510197    0.95816291905372
C         1.27780750968308    4.67330779236525    1.62891894725415
H         1.92749630470647    4.76429840944141    0.77201991116074
C         1.28019956986210    5.64502466873813    2.61572749108709
H         1.93643926649479    6.49869590332509    2.53232557449153
C         0.44038815972275    5.52749617405561    3.71323558900621
H         0.43959640215227    6.28882222161580    4.47950813571937
C        -0.39807633062176    4.43488453932390    3.83018477573900
H        -1.05735025227864    4.33852315023976    4.68283219442220

