115
CSD_code = POVNAQ | q = 0 | S = 0 | Stoichiometry = C59H49Br2OOsP3 | MND = 7
Os        7.28366965606491    6.81651167668491  -11.85596641271601
Br        8.94273741633766    5.55166365448012  -10.32478311858395
Br        5.05760033287389    5.66945398221248  -11.24160980400521
P         7.34132314098114    4.90009094670875  -13.29591894914720
P         7.40026578811989    8.17288433121106   -9.90111027978288
P         9.98428088516743    9.05249420982760  -14.87115241478638
C         8.91584217694853    7.62567664999812  -12.65555441348179
H         9.93205140846071    7.57415571438509  -12.25487239296886
C         8.74701903909935    8.27107752115439  -13.84687456423963
C         7.44607129751767    8.33197709374757  -14.47506705526214
C         6.36553404075117    7.79369483406251  -13.62440108316310
H         5.52417412209132    7.32988668565560  -14.13655956987861
C         6.09373717100417    8.52391052295492  -12.44883921358750
H         5.06957484369567    8.53362490239382  -12.08454615021437
H         6.60370032200719    9.47802724170330  -12.30568197663339
C         7.30476535341656    7.49404447379733   -8.20223966284892
C         6.71039719752771    6.26675317890515   -7.94456119580599
H         6.35857363721823    5.64672201391068   -8.75495215349077
C         6.56104118992913    5.82908276942422   -6.64065304331286
H         6.10197723415153    4.87083270410509   -6.45034256833148
C         6.99469907716512    6.61591294288594   -5.58876774709062
H         6.88216470302899    6.27216344085880   -4.57097731009584
C         7.56578366507068    7.85338965927488   -5.84122177479562
H         7.89365679439427    8.47730732249581   -5.02204305413237
C         7.71178561984276    8.29821619325395   -7.14030578291024
H         8.14285334375044    9.27171741990922   -7.33320652773094
C         8.97714766110875    9.08990984651355   -9.90804601357208
C        10.06984921127549    8.66219462784029   -9.16045950517547
H         9.98130693332246    7.78877200173370   -8.53109797990830
C        11.27097516333683    9.34614488818708   -9.23136308635542
H        12.11105924060507    9.00845541759263   -8.64253497230890
C        11.39751316611744   10.45784851028376  -10.04748059576718
H        12.33205088178687   10.99854029286004  -10.09253672347877
C        10.32406650062037   10.86741835929563  -10.82501848391178
H        10.42078594396103   11.72227356254968  -11.48127494121557
C         9.12660418973037   10.17914380687815  -10.76576973992343
H         8.30257131232330   10.49489474130338  -11.39196482119993
C         6.15674968720181    9.47909508189945   -9.54233026363837
C         4.84009637832115    9.02935147822523   -9.45456061965781
H         4.61568805662909    7.98771659081523   -9.64512765641707
C         3.82227208197495    9.89966561881694   -9.11717589739547
H         2.80631480157758    9.53875933946888   -9.05725345978774
C         4.10861959010900   11.22926597040043   -8.85230989249710
H         3.31559864579457   11.91361786290159   -8.58869926042423
C         5.41686481952081   11.67617215924028   -8.91480735032973
H         5.64740924212458   12.70880881228582   -8.69352892534212
C         6.44048693166685   10.80734529736179   -9.25341565313441
H         7.45723145456225   11.17329958615485   -9.28181364542116
C         8.83938472888847    4.66213526826054  -14.34647528778822
C        10.07530740737740    4.86180879301424  -13.73752176210300
H        10.11999906389691    5.17583584887328  -12.70628539135258
C        11.25225652815819    4.63333569099534  -14.42581321165960
H        12.19844093803859    4.78935318046123  -13.92917323412419
C        11.21507877401563    4.19422736881212  -15.73809823076263
H        12.13183726814954    4.01211569338110  -16.27970625465675
C         9.99225635911850    3.97442438632725  -16.34893915775298
H         9.95268005083585    3.61368409547658  -17.36719825439046
C         8.81251187056074    4.20503948796452  -15.66202090795019
H         7.87217867380031    4.02440965942999  -16.16366434881744
C         5.99405529907968    4.74727015176209  -14.51900952392136
C         6.02308851239158    5.49315872101923  -15.69731856549974
H         6.85817042225651    6.14982154448886  -15.90605313471680
C         4.98000844249664    5.41119122666384  -16.60056985920311
H         5.01675849027446    5.99366876734877  -17.50996487027964
C         3.88941481130624    4.59979667895060  -16.33101457417792
H         3.07262636986368    4.54197761930793  -17.03553374748003
C         3.84387397487172    3.87572516628090  -15.15184473766780
H         2.98849003017325    3.25596861073840  -14.92786346616449
C         4.88849814399820    3.94763462263003  -14.24766171706034
H         4.83661051561227    3.39361770082548  -13.32156717293966
C         7.29467524047639    3.19563149869221  -12.59700046542685
C         7.06639952174345    2.91307907021279  -11.25764482833702
H         6.92029902097127    3.70072700715410  -10.53842229307823
C         7.01256840975282    1.60157110776852  -10.81789009519718
H         6.83487916840915    1.40277082846343   -9.77200164691943
C         7.18166109329626    0.55761542632598  -11.70761075780104
H         7.13948902487446   -0.46535370522571  -11.36345981836292
C         7.40154566567689    0.83075661735062  -13.04832118460192
H         7.52879266522579    0.02267753122217  -13.75453677755601
C         7.45741785813259    2.13698290593635  -13.49064002896311
H         7.62373478301062    2.33192861063814  -14.54034754897316
C        10.00552184212696   10.84330774302693  -14.59899724388159
C        11.20645617425811   11.54750762484179  -14.62057255810595
H        12.12993327717623   11.02965983229405  -14.84181104096469
C        11.20972443869787   12.90495208524224  -14.35639252704490
H        12.14067814558989   13.45224248645294  -14.37078029358566
C        10.02260356693738   13.56109232360012  -14.06937461812106
H        10.03089557554777   14.61969985576540  -13.85677028907975
C         8.82590723406495   12.86189807112795  -14.05481838638613
H         7.90164140412080   13.37538461583448  -13.83546612913175
C         8.81387174312051   11.50400411810498  -14.31731519856498
H         7.88489767960894   10.95336808469325  -14.32021674329566
C         9.80011752850928    8.71865341238752  -16.63403345569956
C         9.59185962136585    7.39979874253392  -17.02523509445737
H         9.53859694316349    6.62379875596697  -16.27355591473088
C         9.43813868518778    7.10071896116601  -18.36452494204800
H         9.26595125651283    6.07910434782682  -18.66895037126762
C         9.49665302796808    8.11236649386111  -19.31093570772245
H         9.37049584245932    7.87825946155246  -20.35747108376531
C         9.70682962703351    9.42410623069534  -18.91775083343257
H         9.74606429254430   10.20996638213480  -19.65748101572060
C         9.85804848639914    9.73494016240498  -17.57821541942979
H        10.00807024240790   10.75842568867298  -17.26374980166615
C        11.60800891141089    8.43662289496647  -14.37655390728970
C        12.39550195396457    7.66303065657757  -15.22084203297089
H        12.06617134644932    7.45133147321618  -16.22824933558281
C        13.60454926582635    7.16827335341580  -14.76465088222514
H        14.21977583797592    6.57236748964274  -15.42231738327869
C        14.02237350231921    7.42773188369734  -13.46911650543542
H        14.96086938864861    7.02803897662749  -13.11543811150115
C        13.23893938746055    8.20136010165265  -12.62766065954341
H        13.55947629129662    8.40562845627666  -11.61736324535144
C        12.03749719576028    8.71289426648999  -13.08048934000314
H        11.43363983165733    9.33729423308817  -12.43671916233587
O         7.29990997520429    8.83191761392041  -15.59263020480089

