65
CSD_code = POVQUP | q = 0 | S = 0 | Stoichiometry = C23H36ClN2O2Rh | MND = 6
C         3.13040906127577    9.89381696561499   11.62179208606637
C         5.23531260772195    9.59882346773256   10.82504090817999
C         4.45328518059046    9.92877480237464    9.77719357787763
C         3.20895921644498   10.56240056783405    8.03246682676654
H         2.85906857968859    9.84884525776488    7.27960973489645
H         3.29024918493047   11.54769705533294    7.56651326064974
C         2.28060487190644   10.58007928937567    9.27443006670962
H         1.45292689716010    9.87490433366464    9.14110930513922
C         5.16838984544757    9.40700914803282   13.13432677438713
H         5.22163359050250   10.38204057983592   13.63828580831765
C         6.54392269204382    9.02070876025644   12.54008047548835
H         7.36143144883354    9.58953594904437   12.98647625544930
H         6.74738517010610    7.95153438063069   12.65708316892651
C         4.51158901364311    8.40949830816304   14.09863217978800
H         3.49374233257815    8.80978081821264   14.26186950120409
C         5.25545555074298    8.40869874111596   15.43611422406078
H         6.25984735889905    8.00202897570049   15.29354455951693
H         5.35972161377869    9.44142372868450   15.77462476810684
C         4.53266787249417    7.61085373665482   16.51494824079593
H         4.48275041561543    6.55612581801062   16.25852345630233
H         3.52011699520882    7.98508182637902   16.64547121271422
H         5.05561290807814    7.70446373211800   17.46353888723302
C         4.39214614175162    7.01106182757721   13.49677169428150
H         4.06441043594045    7.06943473128593   12.46077560846126
H         3.66065475390485    6.42664578147264   14.04726631782639
H         5.34191637118670    6.48108535462093   13.53319199134577
C         1.70402665229655   11.95406346648243    9.67012960392645
H         1.15354927955578   11.78427323467265   10.61146980566857
C         2.80588041052835   12.97032592415590    9.96313111827968
H         3.38928240219087   12.66111450261535   10.82689886342721
H         2.36086175952748   13.93301101277439   10.20028526296174
H         3.47295939134358   13.10456616122725    9.11449676965001
C         0.73364172107333   12.49099599412065    8.61367357592326
H         0.38686367458193   13.46945639879509    8.95143176379838
H         1.26422040783400   12.64221390080144    7.67064536413932
C        -0.48258758130226   11.60420461723164    8.37092214098659
H        -1.19507454591226   12.11800052812761    7.73006000831345
H        -0.97722861157219   11.37242613476948    9.31119888876368
H        -0.20878789670983   10.67154045742532    7.88351959395662
C         0.20985713709690    9.12859942011042   12.05474289351686
H         0.46573620128247    8.88843523185917   11.02282326378120
C         0.81923843271924    8.36130468940940   13.05220356226045
H         1.53034363629854    7.60570513826222   12.72221347969050
C        -1.15324174765502    9.76984802283355   12.18856708354368
H        -1.92637190112547    8.99503846269807   12.12504969308868
H        -1.29952531585332   10.43670234469406   11.33516250729710
C        -1.32026575595866   10.57923282580689   13.48795539107547
H        -2.00533368118788   11.40919067605768   13.30258030623333
H        -1.76864363126327    9.95907811621808   14.26588834623493
C        -0.00375605120550   11.12673992814595   13.99377302627253
H         0.10898659605144   12.20869234395956   13.91683013577189
C         0.78498588025445   10.46035529506755   14.91083498139912
H         1.45533027373011   11.04989412674899   15.53668554200597
C         0.47108224954701    9.08989846386853   15.46677104317088
H        -0.36818303919785    9.17002363322888   16.16671620737289
H         1.33506270076142    8.74953452357720   16.04273592775126
C         0.15120531898559    8.04825974825721   14.37603339174249
H         0.48464784448808    7.06671925947968   14.71999689984253
H        -0.92722228520090    7.98287029444438   14.22027865348980
N         4.40408051403349    9.57887408394568   11.92345427407329
N         3.17987601605309   10.08955516034179   10.28742033342201
O         6.52031224731698    9.31444235875446   11.13750600847675
O         4.51680385038754   10.16002923607770    8.44537386332961
Cl        3.05865130824990   12.05956126621503   13.47223404279999
Rh        1.71162602741620   10.28516907927799   12.98312549208105

