139
CSD_code = POVQAT | q = 0 | S = 0 | Stoichiometry = C60H68N6O2P2Zr | MND = 6
Zr        0.09975472116367   38.85981189426584    9.35482311950089
P         0.40708613331030   40.80914811784845    7.38887358402982
P        -0.64167496642606   36.72880735474996    7.72176431052578
N         1.54301484021616   40.32213437953886    8.43739509918040
N         3.49866412167739   43.46783706253463    7.75763433594296
N        -1.50303350500390   37.32956099026314    8.95619613947764
N        -3.52864299588771   34.14046731492397    9.06105279756735
N         1.35898501405627   37.84570683099789   10.59761922374964
N        -0.84395872374555   40.01554010866712   10.74379268352811
O        -0.84508303394193   39.99601187021550    7.63945130967952
O         0.63355728817007   37.53564856934499    7.60393727857828
C         3.89312288186454   40.79038399406178    8.79641105129474
C         2.88088329611961   40.08707186222341    8.12234279875302
C         3.24868885352525   39.11951589264534    7.18193546555496
H         2.47023467140551   38.61110010298209    6.62679097068683
C         4.57696779110632   38.79458442612354    6.98987547947808
H         4.84727957116159   38.04165892678990    6.26327677122192
C         5.55950020499382   39.41070339873173    7.74426359932059
H         6.59496289495201   39.12591762775905    7.62393762368335
C         5.22762989415493   40.41197278707820    8.64899390925786
C         6.31501082745656   41.06164687943312    9.46075001821935
H         6.64639079083750   40.37935011225972   10.24432540940840
H         5.96246974535786   41.97501295893515    9.93320026246699
H         7.17989019091516   41.29135346210820    8.83993310894726
C         3.50041581978314   41.93052051175628    9.66301522278860
C         3.35099262040087   43.22691351986590    9.14226626527898
C         2.97765031454219   44.24920513133553   10.01571697838598
H         2.87980175434487   45.26064968247460    9.65414443996511
C         2.73386520206082   43.99425082968907   11.35131650222092
H         2.45290576374149   44.80669904417940   12.00666077272996
C         2.84899030533643   42.71018726818654   11.84725068902146
H         2.64123110325753   42.50873040719788   12.88814434636580
C         3.23327796674462   41.67410750753034   11.00745278194162
C         3.33142365760385   40.26937696940141   11.51455580104243
H         2.55946117663432   39.65301574185398   11.02575766627733
H         3.18992145693851   40.23947426198684   12.59324963495347
H         4.30392117671312   39.84056532027211   11.27853556847650
C         4.83311341999197   43.33721490880368    7.20625998927851
H         5.50297967555346   44.13695937319960    7.55729008781405
H         4.76980650076210   43.40135637255933    6.11895024818305
H         5.25925011170213   42.37658241322419    7.46962822954301
C         2.84664587713854   44.65004975869667    7.23648282129419
H         1.84900671203335   44.74012914603556    7.65725343465957
H         2.75225088021217   44.53512129794409    6.15455588100580
H         3.40801728794254   45.57648642500425    7.42956098747539
C         0.90137583770162   40.82100452662525    5.63799110096255
C         0.07494718338720   40.27509251066360    4.66772057731590
H        -0.87237977907974   39.84884144666871    4.96625879006694
C         0.46726820014048   40.29417246071857    3.34021076741110
H        -0.17639608631871   39.87564577725835    2.57980640048318
C         1.68354024673860   40.85563389891256    2.98688953759417
H         1.99104873864972   40.86575109950118    1.95114906110065
C         2.50391371452265   41.41123241289492    3.95730754963355
H         3.44878465380165   41.85269736217764    3.67486119558403
C         2.11330020805299   41.40079603785811    5.28392983569524
H         2.72992977638128   41.83697984168979    6.05591211675773
C        -0.01609172678246   42.54931263873826    7.76404664485696
C         0.12900004990116   42.95312568756961    9.08267865412672
H         0.58059670027489   42.25667214840389    9.77989714565872
C        -0.27981232983910   44.21811963130504    9.46799558698859
H        -0.16666613001546   44.53421490888152   10.49475419297503
C        -0.83181294899504   45.07959891461102    8.53246591971116
H        -1.15152969962135   46.06786729489674    8.82999954571038
C        -0.97392848305678   44.67694634016457    7.21363620996220
H        -1.40280189558813   45.35192330997170    6.48695073550764
C        -0.56982473071885   43.40956956657945    6.82867308511199
H        -0.68191178050596   43.08587308099266    5.80284423743893
C        -3.69822159385988   36.91526475384422    9.89655908980624
C        -2.88133028039950   37.54350762224114    8.94197476908078
C        -3.47230253529145   38.42129188013394    8.02769630421779
H        -2.85283978501033   38.86860322929926    7.26046074187892
C        -4.81295142260559   38.73828475149576    8.12257891337995
H        -5.25594990916246   39.42170926406195    7.41222476237435
C        -5.58299619374734   38.20528378832656    9.14085418279931
H        -6.62144470621917   38.48700644692242    9.24096079606911
C        -5.03485809905173   37.29085452686461   10.03218882960167
C        -5.89280238552291   36.73117278342818   11.13407478896520
H        -6.05341870711668   37.49298744436165   11.89768262088093
H        -5.42013711606138   35.87254034890987   11.60459913270545
H        -6.87071381706366   36.43708986463454   10.75502620688617
C        -3.09813204515443   35.85958256335617   10.75120989521037
C        -3.06205037444247   34.51622767253997   10.34047769316824
C        -2.48078539545562   33.58111276662019   11.19817162755039
H        -2.46059719548971   32.53750718551787   10.92665205260040
C        -1.92965369862503   33.96393808579673   12.40561053932327
H        -1.49223859876534   33.21678988976133   13.05283135407320
C        -1.93758541264765   35.29219889109936   12.78477367632141
H        -1.49074291182550   35.59318677506680   13.72121854568279
C        -2.52195155246111   36.24441432151698   11.96137477635173
C        -2.51305177539862   37.69396270649083   12.33465579750152
H        -2.11944297163858   37.82924888659724   13.34025991745767
H        -3.51893998632080   38.10885185573207   12.29527100136236
H        -1.88682169512231   38.24866736781610   11.61727099649929
C        -3.01163806393761   32.89985790752993    8.52457412225514
H        -1.94252983222004   32.83315043879195    8.70588923196019
H        -3.17549375956503   32.90398506053300    7.44485517458145
H        -3.50714073512387   32.00836059071023    8.93741917262986
C        -4.95482317228432   34.24282096506646    8.82195394008756
H        -5.52241959237519   33.49509328285351    9.39663151409311
H        -5.14457401765133   34.07027120844820    7.76146309224797
H        -5.31189632250990   35.23298312211130    9.07810803107163
C        -1.53265952477731   36.58264886611077    6.14265779699668
C        -2.78140247681232   35.97362597674396    6.12862949579889
H        -3.18650787905161   35.58957976481243    7.05340020164571
C        -3.47700750820286   35.86931270271383    4.93796831748413
H        -4.45215172818731   35.40434559371494    4.91964491192957
C        -2.92428811641855   36.36162215410068    3.76503296020216
H        -3.47006461612449   36.27880602582911    2.83621264579355
C        -1.67164421561463   36.95332361468790    3.77885287681495
H        -1.23788942048539   37.32328113264078    2.86089641585396
C        -0.97419294493828   37.06583194380813    4.96941759756827
H         0.00709556165167   37.51775001426264    5.00425082263119
C        -0.13931913764847   35.01884523051292    8.13559857696711
C         0.04509559413738   34.73543932490865    9.48042784058048
H        -0.22642001606320   35.49777821264257   10.20156660633489
C         0.54281034640500   33.50289299132569    9.86623735664059
H         0.68629382732031   33.28064410125975   10.91359508311612
C         0.85389205275663   32.55326484402804    8.90518216555146
H         1.24245530399741   31.59002748459774    9.20290614825823
C         0.66618866096995   32.83536619509685    7.56098314153313
H         0.90784867725108   32.09179686019858    6.81511917064624
C         0.17325023141426   34.07038485277300    7.17432229570826
H         0.02933170611947   34.30069485726762    6.12746031363674
C         1.11299996890464   37.35120921989230   11.93922402259994
H         0.91386042277180   36.26354942556058   11.95450847470641
H         0.25923783710447   37.86570227687864   12.37950478340549
H         1.99593958960298   37.51525097535456   12.58657428847092
C         2.48897677913628   37.12866342988718   10.03269583427745
H         3.38933077637913   37.24749486894910   10.66560559380186
H         2.72419848550550   37.50383166535109    9.03255994919150
H         2.29458010225677   36.04053267712717    9.96002685485068
C        -0.30867449311189   40.62769050777993   11.94535930800320
H        -0.15036859241505   41.71532308410366   11.82411171477156
H         0.64260565250834   40.16709872228412   12.21088538865103
H        -1.00886159419180   40.50810333041439   12.79453848416498
C        -2.09147286415572   40.67364515215736   10.39685828070284
H        -2.82431074938426   40.59704272106296   11.22305477381984
H        -2.53388990848803   40.21890976357401    9.50595683679691
H        -1.94746913998820   41.75436747428928   10.20121578992482

