131
CSD_code = POWDIR | q = 0 | S = 0 | Stoichiometry = C59H64Cl5IrN2 | MND = 6
Ir       23.06337008767392    7.04057882905528    7.99773935117658
Cl       21.72158396689354    5.31134253361974    8.68413379662001
Cl       28.76669998983236    7.38781637259082    9.48535831890007
Cl       29.68587186766786    9.85790878091517   11.12427162996038
Cl       27.63689929057609   12.02371798183947   11.97028540124266
Cl       24.64656294259191   11.73900029720249   11.18926635043272
C        22.19917716480452    6.98211968514986    6.18479394019485
N        20.94570057607575    7.33529820360860    5.87040322242990
C        20.61140425402959    7.11865645143222    4.46481893081198
H        20.38163538363035    8.07768785758049    3.98764516681006
H        19.73345506383102    6.47384889559610    4.37650923100423
C        21.88405920687661    6.47656335030276    3.91549595983057
H        21.73292556963725    5.43801875551458    3.60181567138710
H        22.31611671692117    7.02871070051800    3.07649988202045
N        22.77907578218640    6.51553330649865    5.06905488524045
C        25.35456885292552    9.41427319805540    9.99951873353996
C        26.27804363962260    8.44070757918411    9.61483825152592
C        27.61334883542014    8.57451632680459    9.95511935863326
C        28.03288177164003    9.68448750833596   10.68854408590089
C        27.11168571467200   10.65789698041355   11.06936609262641
C        25.76833215380404   10.52207526456595   10.71936896499930
C        23.95569724418871    9.12395868475349    9.53991774214537
H        23.24520244995986    9.88324445974704    9.85985479920078
C        24.00601757539619    8.92745046247208    8.02448100690610
H        23.75077854468265    9.76136519015963    7.38579327639526
C        24.93827521282455    7.95258919392029    7.63793151911465
H        25.44050857525147    7.97427374906861    6.68125579940907
C        25.66725406694466    7.32240640084968    8.82189781288174
H        26.39159696380613    6.56621635828507    8.52734596170627
C        24.49944218889274    6.77011044784033    9.62455623452214
H        24.55324399852534    5.78231711873342   10.05857840619254
C        23.59513796724001    7.72096866566729   10.00498563618495
H        22.84978208005239    7.57614312083965   10.77366130715595
C        19.06390381455182    6.71362097076840    7.27885574166152
C        19.91559392167917    7.72828184109198    6.76796580987791
C        19.71136708059835    9.05917067126567    7.06309662525231
C        18.63997627181577    9.40067977378297    7.91146533430043
H        18.46593543363375   10.44001025060705    8.14359301617927
C        17.81754330247109    8.44936303429261    8.44015352620479
H        17.00440869643272    8.73192714590931    9.09349046820051
C        18.00398428854386    7.08614475121882    8.14166623907045
C        17.17377207993888    6.07725037658133    8.66994995629530
H        16.37149115652215    6.36387932963616    9.33519595089623
C        17.38473209731270    4.76432283699458    8.36344759081693
H        16.74744183854164    4.00776361785852    8.79605311585243
C        18.42831328995191    4.38050964020655    7.49924628322329
C        19.23889403964600    5.35034280333841    6.96880715908549
H        20.05639037838166    5.05737676488283    6.32820170522419
C        24.95851177962613    7.24394502256354    4.30547018719970
C        24.15115226344349    6.21890122413685    4.86925498490394
C        24.66276327018870    4.97075423969923    5.14686069857856
C        26.00384927874211    4.70698393813840    4.79871736195524
H        26.40832387904666    3.72612909331271    4.99483842030356
C        26.79183636630226    5.65059920041229    4.20816132879350
H        27.81132656538681    5.42108129945442    3.93390138159625
C        26.29992048601580    6.94783464755174    3.96079867249827
C        27.09418887214490    7.96753967270989    3.39832241644988
H        28.11221509540834    7.73535705740547    3.12044664367333
C        26.59915565293283    9.22726337472778    3.22054587136709
H        27.22911312711837    9.99231934034943    2.79285705068375
C        25.28202253152578    9.54879810471675    3.60470519554008
C        24.48550774685850    8.55983121512019    4.12146300074456
H        23.47945233084178    8.79757102257942    4.43623634409457
C        20.56343462549576   10.14312241677800    6.45355823839149
H        21.42943561893713    9.67416828416562    5.97494438589808
C        21.09048701961856   11.13701550975941    7.49223159998470
H        21.64292274803868   10.59584933775042    8.26030297459546
H        20.25963172951001   11.65046691251350    7.97761813265007
C        21.98153135802162   12.17794709492150    6.82088872860393
H        22.36242596627277   12.87782276970311    7.56749394731463
H        22.84168322673778   11.68646899750274    6.35799789336617
C        21.19545730594727   12.93189729523139    5.75195116034179
H        20.36795944065651   13.46777028254875    6.22231970531289
H        21.83401762179410   13.67307639753239    5.26585072006959
C        20.64130767685134   11.96001742356108    4.71456575812978
H        21.47031505642486   11.46904562661136    4.19724444142164
H        20.05901967554748   12.50368060229590    3.96716666971368
C        19.76690443902808   10.90417167890583    5.38407978578741
H        19.38354954642580   10.20498824115994    4.63638893598864
H        18.90653443494339   11.38785215537351    5.85072002286267
C        23.83586582504624    3.90607463907595    5.81333406860440
H        22.86372149354662    4.32825944750066    6.08308207915902
C        24.49512526319376    3.44807034769780    7.11940104371122
H        25.48743143991306    3.03756089093458    6.92236527624407
H        24.60447008407482    4.31595039537022    7.77226576386158
C        23.63114330272859    2.39689484706350    7.80609394880785
H        22.67798337279065    2.85125805779530    8.08021142207466
H        24.11934858515293    2.06273948238736    8.72383713570408
C        23.39548787854646    1.20749631819765    6.88158639425861
H        24.35058463444523    0.72919833343351    6.64772555701660
H        22.76742452876532    0.46713618618855    7.38099644990474
C        22.73317968447473    1.66878674610011    5.58750168583597
H        22.56439764494240    0.81660534981540    4.92433914034407
H        21.76344958485923    2.11388046950266    5.82197275005891
C        23.60526175593152    2.70636296365249    4.88800315002877
H        23.12702581184992    3.03939793776341    3.96239034210104
H        24.56245886978148    2.25398505340571    4.62011569991922
C        18.69467414790828    2.92883843170061    7.20868096674331
H        19.47490617710135    2.87194411464892    6.44090725041798
C        17.46091070567456    2.18803194434923    6.68458980939678
H        17.09665296873695    2.67674702455222    5.77706981716913
H        16.66122215843634    2.22413794226353    7.42609595551187
C        17.80303463803650    0.72952851307606    6.39427531466394
H        16.91691838962922    0.20771873563641    6.02528935626385
H        18.56709798719066    0.68274649417639    5.61416322453481
C        18.32590930356123    0.04467497947513    7.65361343225476
H        18.57661031066496   -0.99573465561963    7.43442493609087
H        17.54399570178773    0.04595427798464    8.41682544155552
C        19.55474988309007    0.77737202624963    8.18413950830720
H        20.35281485979699    0.72294185163128    7.44109345381171
H        19.91311942806741    0.29469246401203    9.09571692850453
C        19.22767628579710    2.23883945594431    8.47036624051760
H        18.47638246273173    2.29622181322040    9.26046319893886
H        20.11620731255304    2.77093634228110    8.81478642366574
C        24.76046862313474   10.95381491757750    3.46326229093006
H        23.74235892665646   10.98310198476263    3.86951812798472
C        24.69238931987782   11.38282439451921    1.99316602303728
H        25.69315705927282   11.36170513377659    1.55790464951021
H        24.07180629026544   10.67700167181465    1.43533857875615
C        24.11877166031697   12.79171306760390    1.87572015074740
H        24.08323385069004   13.08915957851256    0.82563187325752
H        23.09577772382489   12.80181643185281    2.26030784837819
C        24.96639539942108   13.78118202798756    2.66959205158843
H        25.97361433038963   13.81480713914451    2.24773385466311
H        24.53882910538996   14.78294874328691    2.59261808942501
C        25.04420390034176   13.35999227783425    4.13382800287736
H        24.04416049716254   13.38725672401338    4.57161692526035
H        25.67066553074324   14.05952478353430    4.69088361741585
C        25.61307504062137   11.95005210158787    4.25741186846092
H        25.64396522296642   11.64774596638343    5.30730615753857
H        26.63684491313424   11.94178783556428    3.87983881600779

