49
CSD_code = POWFEN | q = 0 | S = 0 | Stoichiometry = C26H18Cl2N2Zn | MND = 4
Zn        3.35167200629607    2.39830164652381    1.75766167568795
Cl        3.34654773812038    4.55649237799391    1.24102220422335
Cl        2.64104566619242    1.51471790856969    3.65413247859929
N         5.41656118032863    1.86967243466294    1.48708644118311
N         2.34212114939605    1.52626683142128    0.06031849383761
C         6.23644185057556    2.86271408259604    1.32809365204654
H         5.79196025702419    3.83744837449930    1.16828114157382
C         7.64986516355894    2.73431425735258    1.35333121462655
C         8.47871826796715    3.85744286373857    1.19059783011152
H         8.01962868618539    4.82220141372372    1.03590395251889
C         9.84152052319991    3.71848670609247    1.23449222289720
H        10.48389792497780    4.57729561443467    1.11294375666568
C        10.40544795642975    2.45566942617654    1.43997292669263
H        11.48014482938851    2.35514237495226    1.47799887937221
C         9.61267085342051    1.34503528476888    1.59767149971124
H        10.07743344860178    0.38542895738178    1.75870616583370
C         8.21401297614504    1.45323545285109    1.55848193102890
C         7.30685684836099    0.34666651202414    1.71652576709497
C         7.72617432451168   -0.97893072134926    1.90799092093638
H         8.77990874465723   -1.20628108938876    1.93978066962002
C         6.81685671421786   -1.99650368776962    2.05928404172575
H         7.16258143148262   -3.00835701987816    2.20930658692089
C         5.44692331799260   -1.73078426523432    2.02703951449593
H         4.73905192021458   -2.53495068420177    2.15591982756257
C         5.00221525385382   -0.44728075071732    1.83746043892182
H         3.94716409311195   -0.22092798298917    1.82913126198004
C         5.91368443387480    0.60670343902197    1.68065485272378
C         3.04912616236671    0.97645429571725   -0.87679402261432
H         4.10654003292188    0.84579885390298   -0.68437818431892
C         2.52355095481567    0.53867772389418   -2.12006370702326
C         3.35072483898788   -0.05486508896400   -3.08910886477848
H         4.40216030550851   -0.17575918089479   -2.87256609675836
C         2.82461044001006   -0.46734777455847   -4.28493892614993
H         3.45582977707131   -0.92162211403522   -5.03358535719432
C         1.46001946985728   -0.29778108201142   -4.53915518479845
H         1.05302418285231   -0.62535343099127   -5.48437724195367
C         0.63466534470869    0.27873047397882   -3.60551809627340
H        -0.41314503864524    0.39582481381057   -3.83063346853961
C         1.14240991706611    0.71338626179689   -2.37071456531144
C         0.35332376923368    1.32672076379852   -1.33626542817712
C        -1.02502070968316    1.56386454678942   -1.45226550149170
H        -1.54196691357239    1.28083847327127   -2.35549317948079
C        -1.73101161443018    2.15600454694178   -0.43447382589452
H        -2.79058679786432    2.33097043016250   -0.54658507680104
C        -1.08804908575839    2.53354448546114    0.74588600530349
H        -1.65111931234150    2.99557463414261    1.54183675883342
C         0.25735791231048    2.31414253328304    0.89336110872798
H         0.76659551835867    2.59505578792702    1.80400785503580
C         0.99995328613716    1.71592028932005   -0.13466534893180

