89
CSD_code = POWKET | q = 0 | S = 0 | Stoichiometry = C32H50Cl2NNbO3 | MND = 6
Nb       -6.74173306295686   11.64811799618361   -1.39724919512535
Cl       -7.22786875751569   11.31160464696319    0.90872984220466
Cl       -5.06515279810328   11.76240240809309   -3.10038664071852
O        -7.25348433306647   13.41258131254014   -1.44979456061666
O        -7.06484327363531    9.88598491348721   -1.78490462659299
O        -4.53656087201220   12.31092814771710   -0.08698094509876
N        -8.61261967138009   11.63401878215948   -2.35810759652417
C        -9.18709392353382   12.87420240589482   -2.54846434487947
C        -8.36859317697685   13.89125149640437   -1.97715814432922
C        -8.75373142908198   15.23537975201046   -2.00530276206508
C        -9.95156416386362   15.53940470444035   -2.63581090314825
H       -10.27109784066043   16.56615151541752   -2.66516517222056
C       -10.75125003903200   14.57598171600606   -3.24564229663462
C       -10.35753635773417   13.24591038935269   -3.20209835804058
H       -10.95161573479588   12.50150098619894   -3.69460917247574
C        -7.85796203362955   16.27885080356080   -1.35512923422437
C        -6.49115043873802   16.25419845226181   -2.05440469469353
H        -6.60056397371985   16.54747014504812   -3.09672751551158
H        -6.05593966285756   15.25784891064038   -2.02576370204587
H        -5.80668777755463   16.94732494111610   -1.56915799195930
C        -7.70639842462467   15.93357749210518    0.13399217251227
H        -8.66963153007946   16.01196059974054    0.63439471522447
H        -7.01069811702714   16.62070969783285    0.61205771351852
H        -7.34004789235385   14.91702788583306    0.26928730916399
C        -8.42426016998792   17.69726779668813   -1.46059944676864
H        -9.38895274682465   17.77281346897880   -0.96445900119482
H        -8.53027088718136   18.00108177688888   -2.49935632439060
H        -7.74161160890144   18.39185796099638   -0.97540633498961
C       -12.03669588114548   15.01530041297380   -3.93420551314144
C       -11.69470782959838   16.01336940503371   -5.04922660383962
H       -11.02237601792057   15.55386045536590   -5.77029994308359
H       -11.21260078000699   16.90200333379513   -4.65258958238588
H       -12.60062537278631   16.32053796322679   -5.56742068572150
C       -12.80517200934821   13.84883361750616   -4.56230811221570
H       -12.20980764286027   13.35149938239537   -5.32465520817379
H       -13.70793416621470   14.22652119858948   -5.03813195204392
H       -13.10502802383282   13.12554197204486   -3.80732155277142
C       -12.95293955766502   15.68336921194811   -2.89898240882217
H       -13.17560586133439   14.98896635424565   -2.09183306073630
H       -13.88882031410606   15.98330106698047   -3.36559085192438
H       -12.48920686928768   16.56644767158010   -2.46939971513714
C        -9.10942409490380   10.38254526464509   -2.67091423058997
C        -8.15643300942200    9.37927608154068   -2.32713021884213
C        -8.41073292312903    8.02291391343448   -2.54209268542297
C        -9.63550912808658    7.68627408398160   -3.10706223676396
H        -9.84515526091634    6.64830884935505   -3.28565579506770
C       -10.59632622940589    8.63597947770194   -3.43235806620811
C       -10.32814377726691    9.98231063814650   -3.20098242574965
H       -11.08979356508414   10.70702470248481   -3.42124140429529
C        -7.35901834269671    7.00021825610438   -2.13902039252832
C        -6.06515648779938    7.28713244483863   -2.91525935841315
H        -5.28134927125920    6.59832619749896   -2.60677108835926
H        -5.71750647761927    8.30407928653219   -2.74212730569884
H        -6.23479762656627    7.16454768478575   -3.98327563814861
C        -7.11128259046838    7.12184333200608   -0.62760641936062
H        -6.33063463202019    6.42973116984739   -0.31842457215371
H        -8.02175147477781    6.88556187397035   -0.08030437712767
H        -6.80474174712117    8.13066658672575   -0.35576613608573
C        -7.78769444252258    5.56151569535791   -2.43948449037572
H        -6.99698887797042    4.88075445533388   -2.13114846237410
H        -7.95959977621241    5.41711236231822   -3.50349300208172
H        -8.68959223695203    5.29868703065420   -1.89190043617358
C       -11.94430272295119    8.26119919050651   -4.03537259621509
C       -12.09982286761548    6.75326150065503   -4.25076287899488
H       -11.34271459700840    6.37498025605338   -4.93325329991475
H       -13.07571747502670    6.55010769844975   -4.68716959017353
H       -12.03611976788449    6.21405200202744   -3.30886551860490
C       -12.09291366539519    8.95123819830332   -5.39922675460175
H       -12.07610874839945   10.03305181159782   -5.30410320805700
H       -13.03566809064603    8.66687954116643   -5.86177000139179
H       -11.28066897067761    8.65516279653764   -6.05933776612377
C       -13.06453539124967    8.72339004879572   -3.09269720745636
H       -13.05365005690854    9.80096187062506   -2.95676885276482
H       -12.94902330756653    8.25723983130215   -2.11683179413959
H       -14.03417699217583    8.44229644396219   -3.49820688529410
C        -3.37239950711801   14.22536287818540   -1.12150819683278
H        -3.32651874801865   15.30842127934156   -1.05205326311740
H        -3.87085435696605   13.94960545201138   -2.05041256843576
H        -2.35669450758588   13.83783732360093   -1.14272443636820
C        -4.15521063327622   13.67072104306154    0.06501231305703
H        -3.57299377308882   13.77397464408904    0.99353788559507
H        -5.09958471655802   14.21243673265595    0.17937195315080
C        -3.45192218466511   11.39014357421137   -0.06023426043896
H        -2.83795448402899   11.60144211669699    0.82864838584630
H        -2.83635317361799   11.50420466196070   -0.96323403700645
C        -4.01522085946566    9.97938338802263    0.01200887436911
H        -3.20634207700133    9.26032631786463    0.11308329617991
H        -4.56884984221763    9.75491391560149   -0.90513056147275
H        -4.68410548681584    9.89133294525646    0.86900211254513

