64
CSD_code = POWPIA | q = 0 | S = 0 | Stoichiometry = C28H30CdCl2P2Si | MND = 4
Cd        2.52672847731288    0.34098256889622    6.93041025146175
Cl        4.30877647446775    0.93570439851130    8.33620998863104
Cl        1.65960055427663    1.28896811211984    4.92322588178332
P         0.31379188173121    0.86962310431581    8.31489084540046
P         1.50793194621765   -2.06370988876625    6.40438978522261
Si       -1.53957146308991   -1.03055430441939    6.53723959210781
C        -1.17924295421202    0.71164240269020    7.25874708962535
C        -0.06946541488266   -1.73311497941026    5.52317762080836
C        -2.95120462473644   -0.78485619914434    5.27487202173277
C        -2.12335450977195   -2.27293604780548    7.86481177896562
C         0.24664109872632    2.65177690784601    8.71955421732214
C        -0.71502704051421    3.17175427711067    9.58128457603176
C        -0.74601487680499    4.52863922820895    9.84379975888858
C         0.17931489477052    5.37330954173544    9.25121721463699
C         1.14111546248460    4.85965830628689    8.39722661985508
C         1.17854700787756    3.50172877716503    8.13300492053017
C        -0.10021569603826    0.15184409341241    9.93936210419324
C         0.98409074757358   -0.01254677091063   10.80019535248656
C         0.79979906973966   -0.54751882743452   12.06073158168855
C        -0.46866334602779   -0.92920527892274   12.46990278016667
C        -1.54939495944805   -0.76219610717769   11.62068756726721
C        -1.37038786196790   -0.22052146164362   10.35906216604701
C         1.03394416771804   -3.29711349305504    7.66130559030782
C         1.34342983088930   -3.01950871295364    8.98826191217039
C         0.95816911438638   -3.89103507662706    9.99182528431214
C         0.27434284080004   -5.05164947272644    9.67091364629101
C        -0.02066758890147   -5.34218492678743    8.34740473027831
C         0.35205446435176   -4.46767654510974    7.34377770997750
C         2.41121711589184   -3.03097548871316    5.15028791087133
C         2.96479684293848   -4.27947614469608    5.41509989054345
C         3.69507998520482   -4.93309240589444    4.43789153650489
C         3.89126566229922   -4.34259055550364    3.20087627181466
C         3.36859648493283   -3.08460757750886    2.94362013388315
C         2.63887474169324   -2.42559798627619    3.91465606668713
H        -0.96408068275809    1.37217032535582    6.41339858048046
H        -2.04247379591408    1.12490715533075    7.78449015659532
H        -0.37221296895924   -2.65020408141198    5.01210262050488
H         0.18587719423593   -0.99130957574019    4.76273528409000
H        -2.65643449206212   -0.11493164335170    4.47335067449150
H        -3.83357454535890   -0.36327201443401    5.74498077097865
H        -3.24437939504902   -1.72690582435109    4.82351985804807
H        -1.42817680265927   -2.36302981136778    8.69352817001908
H        -2.24627884397031   -3.26063048042053    7.43156144658677
H        -3.08711062801706   -1.97925812731353    8.26899661686771
H        -1.42992628836281    2.51156213450136   10.05341562587513
H        -1.49192448330036    4.92907053145975   10.51501417147892
H         0.15278425902377    6.43245309038891    9.46043343583164
H         1.86594013723826    5.51656708712856    7.94028094413957
H         1.93806022957359    3.09499697872253    7.47010119719354
H         1.97155933709661    0.28756089626207   10.46631077848347
H         1.64327620334682   -0.67063621580707   12.72383115850467
H        -0.61543677729621   -1.35379898193724   13.45206771727983
H        -2.53890823859821   -1.05310561000849   11.94266888185002
H        -2.21989862107359   -0.09085164742570    9.70596433138182
H         1.88970372652011   -2.11444245621493    9.22807980042034
H         1.19153394685306   -3.66315871414343   11.02116905820454
H        -0.02599612866924   -5.73497401364853   10.45117294844699
H        -0.54556987781653   -6.25334389828226    8.09984501056085
H         0.12135279849398   -4.69330993280861    6.31209791222511
H         2.82821962430711   -4.73742203793156    6.38501839212024
H         4.11745266242753   -5.90520583588294    4.64663820037877
H         4.46226269164832   -4.85633459876630    2.44186023285209
H         3.53774995350281   -2.61391046535493    1.98651652664869
H         2.25371127570309   -1.43191569936201    3.72372509895898

