82
CSD_code = POWTUQ | q = 1 | S = 0 | Stoichiometry = C18H54N3Si6Zr(1+) | MND = 9
Zr       11.66484222960276    9.48427911123669    3.44650275179888
Si        9.66853835267551    9.37940126285243    6.00084560198174
Si        9.14724640188821    7.45376680114773    3.67915974667069
Si       14.26150917290119   11.27150908282848    4.20569889048146
Si       14.02362260802548    8.47836721360094    5.43531164838800
Si       10.12457684755289   10.88427550928552    0.95680944302716
Si       12.76026023916085    9.43503818555667    0.39317364945114
N        10.03995225738700    8.71351899500926    4.45183150460366
N        13.44900359482820    9.76614786925882    4.43924396687629
N        11.50451819158975    9.97120945517885    1.44966110633650
C        10.81887625040376   10.92738829973129    5.98538853560109
C         7.85673906655007    9.94829154930665    6.19520896407987
C        10.10653034982822    8.22277540293105    7.45702076490058
C        10.35896402999384    7.01698361755777    2.24380799860147
C         7.46090362490955    8.02434264103860    2.98630881617863
C         8.87439594963396    5.90810741982040    4.76540841642980
C        12.86584538870085   12.27156495400178    3.32725253910440
C        14.74946333012296   12.15786733140751    5.82423524925401
C        15.80287355356102   11.14426719637135    3.08440068985815
C        12.82888975094656    7.06863202676282    4.88303436545070
C        13.85005264771768    8.82095680167036    7.30674650145555
C        15.82261454560027    7.95227116830082    5.07333187401569
C         9.42471279299967   11.38995780833106    2.68157590185341
C         8.84298450605585    9.86451390471337   -0.02681401540297
C        10.54140298758288   12.46149402634237   -0.03476982736851
C        12.14292276559846    8.46859615777290   -1.13321271979845
C        13.69337088963022    8.22473363502169    1.57033400879153
C        13.91641259818870   10.83637937279286   -0.19800634779040
H        10.35250479147131   11.76737534782551    5.46816714339909
H        11.03177405166554   11.26795793551136    6.99482460199709
H        11.77575253285030   10.67305661415232    5.50694133087938
H         7.19323417979888    9.09247536491248    6.24925782953043
H         7.72409155413009   10.51650639422024    7.10948063868967
H         7.52263105616661   10.56938976646392    5.36986208370575
H         9.35108953975391    7.45209321792908    7.56565169567983
H        11.06221748717802    7.72632237261604    7.32351241678756
H        10.14209202730910    8.76760174523586    8.39464015095453
H        10.81048237386632    7.93889477743024    1.84973055220195
H         9.83818038545725    6.52576473919457    1.42665609085033
H        11.13848870445996    6.32771836527635    2.57223581885587
H         7.51954019099782    8.98451646178041    2.48405396891818
H         7.06212674695737    7.30310858894953    2.28058597818472
H         6.73646879641424    8.11908139242401    3.78796286416849
H         8.47898212629952    5.08561164328849    4.17930750548065
H         8.15673647420042    6.11785225863751    5.55061074986625
H         9.78797507509184    5.56473122298499    5.24083645662854
H        12.17063292929994   12.70741553749043    4.04640975643801
H        12.32590191554220   11.61537977680144    2.62938126021164
H        13.27671308167261   13.09923956983371    2.75599235040518
H        13.93057402109955   12.21112679446665    6.53499941653940
H        15.56899532547635   11.63911263918249    6.30883435472040
H        15.08143940632717   13.17155033242253    5.62779884724293
H        16.63232220367700   10.70921902683535    3.63119030460086
H        16.12358247961489   12.12394667335147    2.74597524030164
H        15.63102315821345   10.52879802147464    2.20736004723706
H        11.82163183668703    7.47932032752281    4.72067084688452
H        12.75471106786574    6.29668432660188    5.64385538581897
H        13.18366784406981    6.57555587712701    3.97658690658399
H        13.93892378574325    7.90618139240412    7.88341416196723
H        14.63845770770693    9.48608711824225    7.64211868310095
H        12.90220093458193    9.28430692183223    7.56072252870248
H        16.51696456062533    8.71002386828331    5.41873934329198
H        16.06937935080920    7.03069794555852    5.58923554944060
H        16.00792791407646    7.79714327932961    4.01491194090595
H         8.36461141101866   11.62007748234068    2.62271674123365
H         9.91424602542453   12.28659906792535    3.06485572372565
H         9.55038065958482   10.55848290557399    3.39042701671305
H         7.87438407592697   10.35326117133912   -0.03680998499332
H         8.70835181923792    8.86483874676456    0.37337574722099
H         9.15765416847745    9.76209889460669   -1.05974067928083
H        11.29950928061059   13.07119506205229    0.44713061715511
H         9.66004019126850   13.07892965562500   -0.17034173303477
H        10.90888963465592   12.20410566225312   -1.02181211795147
H        11.44190687181919    7.68087746875126   -0.87500771401769
H        12.97083524472474    8.01119775834952   -1.66403665646123
H        11.64373278402519    9.13439699777699   -1.82824485061806
H        13.23708750871476    7.23359854388214    1.56860843002211
H        13.70322190102499    8.63450936559292    2.59097845546878
H        14.72458406467130    8.08883999314327    1.25675275321987
H        14.14365793726341   11.55027717371057    0.58711920981553
H        14.85528418885160   10.44142292948892   -0.57193472319118
H        13.45557969190339   11.38430668340180   -1.01274106103547

