75
CSD_code = POWVIG | q = 0 | S = 0 | Stoichiometry = C23H43Cl2N2Si4Ta | MND = 11
Ta        6.73200514735762    3.47536084886219   20.46942719216581
Cl        5.29191194543377    4.88657979121968   19.41188249465339
Cl        6.29157372638005    4.48325027684414   22.45018048171995
C         8.68845447297256    2.33623904608876   18.80914997976526
N         8.00797892251487    3.53721880879685   18.91574007364111
Si        8.59298726290015    4.98533274235735   18.11249580736257
C        10.43701230831979    4.81153208791667   17.63954376646399
H        10.56079659926095    4.45621493453412   16.62285783192006
H        10.95458152934732    4.11756416161344   18.29395011742713
H        10.93586438035210    5.77209280345643   17.70792716120588
C         7.53380599291438    5.40582877563373   16.57940624640391
H         6.48178069662543    5.46597366670157   16.84092593756569
H         7.63792667286747    4.66647043318783   15.79078398495842
H         7.82934561577422    6.36662970196040   16.17100181367643
C         8.45494576260749    6.35834114065915   19.43882645551260
H         8.90844171569917    6.05585230791619   20.38157780991823
H         7.41641125394397    6.61459834155327   19.63093271162350
H         8.95397818652005    7.26490109263226   19.11076324424428
C         8.75020386934858    1.59162527739242   20.01271786985821
N         8.16008142192183    2.22186622058099   21.10080813704522
Si        9.04513411501567    2.27765440686602   22.61902261569912
C         9.69763905724758    4.07494647104453   22.73110200119532
H         8.88315812030240    4.79050187701323   22.78860718501980
H        10.30209609683765    4.31966846329949   21.86038168109121
H        10.31820012015378    4.21295876974089   23.61079339959277
C        10.59628204031340    1.16909815871062   22.71949899807247
H        11.17518926817072    1.19614156358981   21.80303826683725
H        10.35669484807159    0.13369289632828   22.93393084375357
H        11.23278642399359    1.52354827362009   23.52344534001597
C         7.89425388685807    1.82158445563805   24.06899207217768
H         7.55938240028381    0.78940199263586   24.02219450990666
H         7.01908112437980    2.46090539612246   24.09408464363323
H         8.42103165058342    1.94990985493878   25.00857179632041
C         9.32545742948779    0.32838885094156   20.00112528375086
H         9.30811821752608   -0.26687197991915   20.89920761029243
C         9.87160674666474   -0.17801003544995   18.83285961046975
H        10.30931532402949   -1.16479302653315   18.83363609682791
C         9.85126162835814    0.57135615801070   17.66830426341357
H        10.28209188049744    0.17402124502802   16.76178205626267
C         9.25775253306402    1.82274505113041   17.65246204829144
H         9.19438628772257    2.39026322401890   16.73780087026650
C         4.23230551046258    1.88429203824332   19.49322975347878
Si        4.13732578352822    1.88031452382067   17.62004365557982
C         5.89183949314632    1.94864339121523   16.88024499704495
H         6.41772985806585    2.83053002332677   17.23170208904302
H         5.86521828816630    1.98483455471628   15.79564114989559
H         6.48084437449817    1.08014988725161   17.16290797207439
C         3.31309786515077    0.24148887061618   17.07384746633702
H         3.88983799797667   -0.62210750898781   17.38968863390685
H         3.21700292461632    0.19643618968512   15.99403770693360
H         2.31895560667651    0.14308435843874   17.49730685844436
C         3.09049626943824    3.34026579164049   16.97406751951035
H         3.07461267883794    3.36415129032843   15.88862271010781
H         3.48234226451175    4.28991980404406   17.32303451086986
H         2.06242325679499    3.26462296755938   17.31411848813996
C         3.25943836496060    2.20678077431956   20.39225866435925
H         2.27639776501132    2.56782149422944   20.14858242786042
C         3.72346362211436    2.00066919070160   21.73773722782606
Si        2.78825012658832    2.49526579317773   23.29050068576629
C         1.12678096564510    1.55715573291238   23.37043662147571
H         0.52303433314712    1.74866283534192   22.48907105455317
H         0.54784502266902    1.86002107827347   24.23730960041556
H         1.27989410033824    0.48443158070266   23.43467441697998
C         3.82952173358409    2.09181725013929   24.83778789023780
H         3.26958179481877    2.28486674167778   25.74771800432417
H         4.72715772018300    2.70135327583405   24.87218182460199
H         4.13426031045098    1.05007097955820   24.85604577961809
C         2.46552185841263    4.37619439476808   23.20925682032792
H         1.96934930021002    4.73997189967866   24.10418056338635
H         1.84071726865542    4.63170173851829   22.35861130288042
H         3.39778265651349    4.92357204326358   23.10324092460955
C         5.00306219271261    1.52400261103996   21.65495588386205
H         5.61714847612795    1.18308006995487   22.47215820982321
C         5.42331409510952    1.51220529185294   20.25695276787247
H         6.06893943833569    0.71854451539674   19.88310550781730

