54
CSD_code = POWVON | q = 0 | S = 0 | Stoichiometry = C24H20N2O7Zn | MND = 6
Zn        5.17408791920421   10.04217841514679    8.27145948971804
N         4.38551306954886   10.78907173868959   10.08795826166413
N         3.06470873349672   10.02711444717573    7.89525769689089
O         5.37119058951725    8.15475152807023    9.04096014569225
O         5.52118819789574    8.62428862936525    6.91771331167084
O         6.90977891189012    2.44073675071970    6.77242592024013
H         7.12785750330496    2.31921894672843    5.84014713500396
O         4.98665588278739   11.76562751203358    7.31073988175072
O         7.07610257650131   12.28686470436601    6.75052244615743
O         3.77793189409753   15.86754080729022    2.68939719759648
H         4.48786735953866   16.25246375712605    2.16107205089474
O         7.22740066101690   10.50263935518721    8.57727024686869
H         7.53767431763685   10.98063254304699    9.35037646340400
H         7.31550740125599   11.16651325582891    7.80672491348767
C         5.59390219431431    7.79706614101960    7.86158334008136
C         5.93448591292328    6.38281635749238    7.56369272620202
C         5.93811669484989    5.42993197527296    8.57865751076293
H         5.68357376778689    5.74133480583799    9.57975042359460
C         6.26233722070237    4.11862532445982    8.30478245888938
H         6.27048994474594    3.36628602629579    9.07766175883570
C         6.59330099443374    3.74253215047544    7.00461453109373
C         6.59296817055377    4.69261554412730    5.98781214598536
H         6.85422302010172    4.39761414468846    4.97926009155089
C         6.26462975250974    6.00383796675103    6.26731128815623
H         6.26471695270857    6.75379327646246    5.49164335343454
C         5.84644890326174   12.38630790894919    6.61584873438018
C         5.30342877482674   13.32592967266422    5.58082931713541
C         3.93259552054025   13.52887676687340    5.45609831442539
H         3.26827143052706   13.00741321655822    6.12869036297074
C         3.43353335455749   14.37876808585587    4.49241445704373
H         2.37353192997069   14.54799184818655    4.38297190483447
C         4.30682773789485   15.03909752250344    3.63141790925636
C         5.67809686294596   14.83993081002117    3.75111817318367
H         6.35477395459303   15.35320113738127    3.07942289829969
C         6.17019310216053   13.98930561815545    4.72093537418628
H         7.23143571768629   13.82278381717419    4.82513983503100
C         5.00249168711574   10.88095977217625   11.25085903187414
H         6.03750815088350   10.57252138295811   11.26253345994573
C         4.37135687429022   11.32516211388974   12.40272919822370
H         4.91149379103989   11.38702467899253   13.33384235367078
C         3.03353529887309   11.67817688703070   12.32436527564749
H         2.50146446518365   12.02392768172882   13.19822739535443
C         2.38375780810620   11.56659001398231   11.10748790085585
H         1.33480063014290   11.80268340812592   11.02494003155383
C         3.09757040453921   11.11433753686578    9.99843146673206
C         2.47580465767020   10.92882725367879    8.67858718454846
C         1.35893724478113   11.64659449638745    8.25891007840766
H         0.91928544954479   12.40310957779818    8.88967900330926
C         0.84999441567866   11.40537449568575    6.99323905009641
H        -0.00375488494552   11.96123000166318    6.63423378634511
C         1.46211671695806   10.45299095791370    6.19509624617256
H         1.09760984089065   10.23945456350986    5.20308281472489
C         2.57719959630366    9.79287003231875    6.69181757221735
H         3.11268092064890    9.05906263732166    6.10645607999774

