57
CSD_code = POWXUU | q = -1 | S = 0 | Stoichiometry = C26H20Cl2N6O2Rh(1-) | MND = 6
Rh       -2.10655586653644   16.02294349897193   10.19326441508301
Cl       -0.42182721747531   17.62436904795751   10.37379047121210
Cl       -3.85587134085069   14.49761779927955    9.97389278395552
O        -1.03209752853207   14.53864668849572   12.33057663916694
O        -0.19064204422111   13.99335360787641    9.81898841528464
N        -3.34600665242455   17.26274209367415   11.25067768751155
N        -3.09452933793319   17.28008402016260   12.50747694824438
N        -1.72510403214212   15.51515368660918   12.02570609856938
N        -2.38618499553844   16.56850801030274    8.23943834905833
N        -1.92125369393589   15.71594966579787    7.40278104611183
N        -0.97759137649934   14.75809694248590    9.25089663761155
C        -4.31561193710130   18.16292690358471   10.81985684824392
C        -4.39905194921167   19.44361556433947   11.36818999234611
C        -5.35707999181648   20.32555692208958   10.91027165478728
C        -6.24945383446863   19.93939338010042    9.92274044772704
C        -6.18488405295039   18.65885020342225    9.39590799281415
C        -5.22253499374902   17.77220792241800    9.83316148092208
C        -2.22298452000020   16.37298863777324   12.95004601304463
C        -1.94045595587266   16.34293480741290   14.38400345199275
C        -0.88122638940884   15.61757564702425   14.92940319702205
C        -0.64688813481254   15.64528096766428   16.29207697993451
C        -1.45543079415406   16.39059400155805   17.13240466821994
C        -2.50693542175836   17.11929069039471   16.59785222608698
C        -2.74838801877599   17.09806697833922   15.23996452263228
C        -3.09030865525102   17.63213744192985    7.68315189767139
C        -3.93669910416894   17.43774253917783    6.59069994507085
C        -4.63920458632138   18.50478956277552    6.06795653867511
C        -4.49295025621329   19.77207203497320    6.60943288210093
C        -3.63271642768642   19.97154247310492    7.67793542488258
C        -2.93660022065451   18.91119061774039    8.22067583138844
C        -1.18084231612466   14.73024811958986    7.91088489960917
C        -0.60509279522008   13.76137425285108    6.97983716100623
C        -0.04422151086337   12.55500738437543    7.39866524555059
C         0.46463453186273   11.66467282233756    6.47080168421406
C         0.42480121620386   11.95518762539824    5.11821326502370
C        -0.13614809459886   13.14972754951001    4.69302470584531
C        -0.64664430239872   14.04385098819446    5.61098215103640
H        -3.69110662736003   19.72795121313663   12.13217154838663
H        -5.40950874970499   21.32273185387123   11.32540078890297
H        -6.99658400185755   20.63467786597112    9.56662995470715
H        -6.88791909462235   18.35118591442377    8.63550133569115
H        -5.17236256032266   16.76614852071163    9.44414861857325
H        -0.24341395783037   15.03275707837525   14.28630172861083
H         0.17808108324980   15.07832147378327   16.70080930917774
H        -1.26886961955511   16.40564740199078   18.19762913344133
H        -3.14246066304410   17.70594550999332   17.24758999616047
H        -3.56462675439560   17.66204125694016   14.81605645560252
H        -4.04180212697590   16.44207400033366    6.18660598180884
H        -5.30700485565475   18.34866263351679    5.23183644995217
H        -5.04647891408315   20.60388866422229    6.19695159752538
H        -3.50711073618857   20.96092958418621    8.09320717306952
H        -2.25024193456474   19.05550743914509    9.04170403224177
H        -0.00668145809526   12.31640347450604    8.44941199848338
H         0.89609923900002   10.73293551924533    6.80955250604175
H         0.82730123794510   11.25615871672461    4.39773106799943
H        -0.17266285563569   13.38339741957687    3.63743811664218
H        -1.08486404857433   14.97564335966502    5.28879160734869

