111
CSD_code = POXCIR | q = 0 | S = 0 | Stoichiometry = C44H61BrN2NiP2 | MND = 4
Br        3.01588898553602    6.85417297642117   13.98263532856814
Ni        4.65642624336363    5.86097848383736   12.76989115384883
P         2.51004796810903    4.02696031027207   11.47680696340642
P         6.63227541993106    7.73422404529843   14.42166017139614
N         3.87429023801843    4.00139220994983   12.31705751280988
N         5.98515157442327    7.37470803921987   13.00646013523544
C         6.01098927200030    5.27154423897171   11.66491818690249
C         6.05311878985970    3.94160893832447   11.26349515122373
C         7.04672593596225    3.51642483295098   10.39336184708778
H         7.08126954683740    2.48184996666153   10.07830570229094
C         7.98145600296048    4.42480339082290    9.92214626107862
H         8.74997664862508    4.09368253947443    9.23780649595547
C         7.94640798233978    5.75210045825749   10.32204689069878
H         8.68769701762193    6.45261354437960    9.96097927627625
C         6.96409210396090    6.17648002750340   11.20265052405499
C         4.94998167813570    3.10408472132614   11.83242444003580
H         5.32623021343064    2.54375614518897   12.70142920237244
H         4.58816882435409    2.37325657296626   11.09690513190385
C         6.82197135054766    7.54446155718030   11.80043121095845
H         7.80101069028454    7.99036180390623   12.02494121661482
H         6.30312797418620    8.21476117531596   11.09931447055318
C         1.07834808195817    4.50039449478662   12.53503290464203
C         2.48908718346032    5.14242462241678    9.97008981422842
H         1.50756945355338    5.10003980113897    9.48638632952165
C         2.75776814757454    6.57630065457360   10.41947105339730
H         1.93683982420809    6.93643289412485   11.04516020687779
H         3.69123019255276    6.59788715963505   11.03162630776283
C         2.93460413797233    7.51110603988508    9.22812967764601
H         1.99469463327789    7.56908572306503    8.67111243708016
H         3.17009150684830    8.51477271564056    9.58747406146455
C         4.03841541240127    7.01105854934302    8.30260831457641
H         4.15078917640734    7.68807041864420    7.45308795523002
H         4.98732816636582    6.98780684254485    8.84438268653221
C         3.70861613497270    5.60467549666026    7.81453389158290
H         4.49614135359173    5.24220228623265    7.15047280496296
H         2.77292014710850    5.62282135814139    7.24873836005772
C         3.57495984407683    4.66324465896694    9.00720751193555
H         4.53099867116416    4.64055204512089    9.53658568247480
H         3.36051029115864    3.64668871508737    8.66399085938393
C         2.06140259685241    2.35793035965782   10.89242796653203
C         1.36628683884640    2.11975689985213    9.71382915082714
H         1.11308881891613    2.93502129336893    9.05343599860318
C         0.98416942747799    0.83171103281384    9.38103018879631
H         0.44659494521826    0.65382956675380    8.46101886517375
C         1.28252533858490   -0.22559597023924   10.22409210766006
H         0.98208944610275   -1.22871097743402    9.96019870748438
C         1.96218411052412    0.00710914851005   11.40856766374143
H         2.19033965378743   -0.81319701908579   12.07325614538476
C         2.34669305443556    1.29273029516460   11.74163497684548
H         2.87773506711699    1.48373033484680   12.66357067079706
C         5.86021694261610    6.79559284989174   15.80764357372942
H         4.81907061110131    7.13362569323175   15.86082851317761
C         5.86599576146547    5.29702819041496   15.52067616193563
H         5.37074487108130    5.09458338698309   14.54193995091162
H         6.89459477582406    4.92795455040895   15.46268027343646
C         5.11275884418396    4.56491470145261   16.62555497048478
H         4.07585212943480    4.90809806756191   16.63856198811352
H         5.11108268662457    3.49121328972157   16.42560788026463
C         5.76230023283557    4.84256886467202   17.97826251651894
H         6.78197017110242    4.44780337449154   17.97987892987018
H         5.20605477886096    4.33555068935347   18.76898862339792
C         5.80026764021506    6.34268681895731   18.25480611450380
H         6.28853125144267    6.53324474714791   19.21318324865987
H         4.77838589589013    6.72358370457178   18.31444487614788
C         6.54441139196877    7.07943160190639   17.14154097951913
H         7.58362349042300    6.73920184214475   17.10984483908628
H         6.54376750297683    8.15067554678729   17.35390000870049
C         6.47910632185775    9.54572953193644   14.83066720951289
H         6.97661934821619    9.75974733259562   15.78174814137570
C         4.99812601396770    9.90098148909136   14.93914611809461
H         4.49187062994495    9.60595735716259   14.01747042397142
H         4.52907046336900    9.34945934476927   15.75549568634309
C         4.82035613122382   11.39828067808512   15.17502093237703
H         3.75582250019235   11.63248653008961   15.21802074890876
H         5.26250087834366   11.66879545281185   16.13802250600654
C         5.48930975773942   12.20901678215444   14.06966636268920
H         5.37401707231664   13.27695613336524   14.26621202301921
H         5.00389841931068   11.98825205664388   13.11683591473088
C         6.96979380647298   11.85345911264666   13.97470643783481
H         7.44308454249151   12.42145311893437   13.17070392107354
H         7.47018917934275   12.11808814528806   14.91000923947382
C         7.13154202070425   10.35877920936153   13.71443920081595
H         8.19227418850761   10.10364895780741   13.62272087290022
H         6.64157177086851   10.10920270534644   12.77036165525079
C         8.41361337637652    7.32798220233686   14.53225619152086
C         8.82478557259064    6.14869437558258   13.91796174817032
H         8.10321541491174    5.54980653646908   13.37969225458220
C        10.14702327568966    5.74946379924126   13.98026099325735
H        10.45473284041093    4.83482930455935   13.49516678019629
C        11.07061346734846    6.52400800021642   14.66230390332303
H        12.10493723387400    6.21704963028633   14.71102864467425
C        10.66592071704216    7.69440605826440   15.28326144262945
H        11.38427944378133    8.29740238351141   15.81966021453284
C         9.34343139953683    8.09669497744192   15.22171316366453
H         9.04127550561656    9.00711727309374   15.71677052784312
C         1.16267014255888    3.75968930981733   13.86567007330094
H         1.05762152000265    2.68359473119986   13.70074483967758
H         2.13544164683816    3.95021623320348   14.32135962938712
C         0.05056825426743    4.25104499347538   14.78532083777707
H         0.20336678546223    5.31390633930558   14.97901761435543
H         0.09693256090453    3.72122947894965   15.73851286548722
C        -1.31096048667666    4.02900798835022   14.13326244218306
H        -2.10169516242157    4.40538227270366   14.78469603645726
H        -1.47610556629425    2.95746865868207   13.99108900139408
C        -1.38007932267578    4.73271037186690   12.78110964327021
H        -2.35107363064623    4.55185308034581   12.31419042612390
H        -1.27021169727271    5.80843772537884   12.93174137307827
C        -0.26460093849669    4.23883427827089   11.86117119877686
H        -0.32604144381627    4.75716988631555   10.90118899062414
H        -0.39364625406977    3.16845241970979   11.67704735304012
H         1.16187720495746    5.57129041553786   12.74019039331973

