123
CSD_code = POXCOX | q = 0 | S = 0 | Stoichiometry = C44H73BrN2NiP2 | MND = 4
Br        5.77880246642831    5.40200972862792    5.48741063755561
Ni        5.32905426025885    6.65966316261891    7.29455433092897
P         5.81222865836643    3.83787244819433    9.09614789087380
P         3.18687103416119    8.47092019363111    5.73722857761401
N         5.57403933273409    5.42185192465702    9.01801861614141
N         4.71835157656354    8.32924676045501    6.17214715022543
C         5.47839385396526    7.95385795111503    8.59148840974218
C         5.51948792444093    7.63220630030420    9.94173353107824
C         5.72180293554844    8.63284491688511   10.88247814963855
H         5.75591449552038    8.38251263601734   11.93475710349026
C         5.87956371441301    9.94569711710162   10.47186999508163
H         6.03809936772341   10.72207925649016   11.20699226261589
C         5.82740439380271   10.27394604791074    9.12620291841572
H         5.93652506426654   11.30284645622705    8.80943037250518
C         5.61742322450993    9.27949098058719    8.18343894362425
C         5.33234095270668    6.18265129964808   10.26252072105283
H         4.30774424453494    6.02488614516873   10.63865676402503
H         6.02109962236447    5.89503091908142   11.06401696672402
C         5.45888436952728    9.48720016044388    6.70698108864494
H         6.44837772885079    9.49556089129661    6.22766795817026
H         4.97818440957163   10.44887608787806    6.49355915778249
C         4.25387107835212    2.85559550236899    8.71657593677256
H         4.46639589997462    1.78325262233167    8.76150519038661
C         3.19032295192341    3.23126976127268    9.74858154133364
H         3.51509529044557    2.97395657278715   10.75941347778670
H         3.04601462989224    4.31425606221744    9.70643842399152
C         1.86127144214961    2.54028958021477    9.45469884963199
H         1.12236871066230    2.82977658121736   10.20593677851668
H         1.99439671709229    1.45721280849876    9.51764746664521
C         1.36618805661000    2.90972098738788    8.06118242385192
H         0.42688853956979    2.39469849065627    7.84864633931464
H         1.17570893110724    3.98439491625988    8.01865268430348
C         2.41734394888252    2.53687206762445    7.02238691720552
H         2.07914450696713    2.82582206319077    6.02543719510342
H         2.55583767959027    1.45256941262750    7.02310540568891
C         3.75142334002921    3.21395126887634    7.32136185324740
H         3.63636114701846    4.30264920705644    7.26586573826415
H         4.47598284451033    2.91835867487614    6.56170462916077
C         6.29183603144664    3.28771666953562   10.81706650110160
H         5.58618482724675    3.81911935197097   11.47105562843874
C         6.15548131867494    1.79685810406358   11.11930861621185
H         5.15541662605298    1.43615393214382   10.87780374648990
H         6.87048711190689    1.22254391724213   10.53130189596433
C         6.42577971948922    1.55619328933633   12.60559976289513
H         5.67655796182576    2.08451782329889   13.20110574744562
H         6.33403810520214    0.49045649573222   12.82569586304287
C         7.81716897577058    2.04776614070059   12.99398699333380
H         7.98075096808637    1.89243758264887   14.06213269623254
H         8.56916933839991    1.46768137393150   12.45386218250870
C         7.97836967669503    3.52582951249092   12.65044204271725
H         8.98877747161228    3.85847878399997   12.89665321260636
H         7.27802759156420    4.11768013523153   13.24537765413252
C         7.70718574844252    3.74864065177429   11.16459694920148
H         8.43034253173665    3.16926796634716   10.58853938702591
H         7.84398163589217    4.80141129229596   10.90675255114328
C         7.07621088326582    3.32333314052447    7.84829953779241
C         8.23380018632162    4.31742837761697    7.78151779462297
H         7.83017521968517    5.33225705150782    7.69026400911270
H         8.84077535092829    4.27772264795001    8.68758259853219
C         9.10200777892979    3.99336789600786    6.56944815834619
H         8.50859943216154    4.12556219292519    5.66348917539670
H         9.94622249237310    4.68433449633365    6.52639683675978
C         9.61014820027222    2.55628349791839    6.64290976083382
H        10.25369828778136    2.43905346360902    7.51967028571397
H        10.20865500211567    2.33015241645256    5.75871605935869
C         8.44209801304428    1.57877225413339    6.73762155608306
H         8.81484544090337    0.55343184759199    6.79851596266721
H         7.82864301485720    1.66582353376185    5.83912715982641
C         7.58714472575773    1.89238115434009    7.96522078605260
H         8.20581900476745    1.77341354206257    8.85724023913986
H         6.75259840564124    1.18954097067601    8.02558541150243
C         1.93063575026360    8.40263885842194    7.14717381201647
H         0.91103970194552    8.45700456529772    6.75243448535382
C         2.17042018214714    9.57544082091594    8.09723322564412
H         3.22612526202337    9.59650041833429    8.37930385258826
H         1.92837886448443   10.51766911682378    7.59905544289000
C         1.33115362681900    9.45644710313897    9.36626818077046
H         0.26841423435671    9.49601230375225    9.11103577057573
H         1.55048271963036   10.29900137684647   10.02529298697839
C         1.63595197273655    8.14296703009512   10.07443533409877
H         1.05089473212152    8.06478018584445   10.99338391641226
H         2.69493590559129    8.11649449137368   10.34113537174393
C         1.31133025055477    6.97907212765764    9.14647249264106
H         0.24488079520512    6.99989233690444    8.90094423192121
H         1.51461580996456    6.03023958521944    9.64849141830616
C         2.12693735631713    7.06590772922183    7.86062665065349
H         1.84045788525253    6.24499012399487    7.19808514745452
H         3.20103445451063    6.94549132846807    8.09876012626332
C         2.79141569540634    7.02417135694102    4.66044475686757
H         3.23263434904664    6.18934517786808    5.22347667867602
C         3.52687466855611    7.10114783558554    3.32390141632050
H         3.07878464090272    7.87443830057971    2.69583206018709
H         4.57584267154746    7.34264987194828    3.49784465143823
C         3.42226819727437    5.76022290848344    2.60350113070629
H         3.92226574604165    4.99962775427351    3.20330339821197
H         3.93831582817334    5.82072205594558    1.64429797235361
C         1.95938570524245    5.38700062689419    2.38442068900177
H         1.49016505664353    6.11554794757863    1.71722426964710
H         1.89236715450078    4.40800048262388    1.90679019321690
C         1.20793777640864    5.36501550793593    3.71173581237728
H         1.63746375558607    4.59135834015443    4.35174667424936
H         0.15610119642185    5.12012065064240    3.54448541169807
C         1.31650744588090    6.71705138589286    4.41801601818359
H         0.75167785237677    6.68029014196406    5.35093020444095
H         0.86502028873390    7.48419768954853    3.78606225568274
C         2.86803408053899   10.11306766213919    4.91373462082675
H         2.98101400315691   10.84321257104123    5.72796710815232
C         3.90226214517523   10.45095032412508    3.84077644523485
H         4.91348683351079   10.29330862676773    4.21720335748984
H         3.77142934789969    9.80226831329163    2.97554100134240
C         3.71723127086765   11.90120080573637    3.39900452391928
H         3.87959714060896   12.56978718398968    4.24846795325156
H         4.45451683243298   12.15013508714604    2.63353717058513
C         2.30810861564089   12.10869588199041    2.84935507806110
H         2.17714179771815   11.49452967861125    1.95529214972539
H         2.17020999238407   13.15225362506231    2.55970386643953
C         1.25980005231616   11.71728040759055    3.88762455250465
H         0.25867229234602   11.83362725313986    3.46683533956565
H         1.33724945143130   12.38324552749842    4.75096933097514
C         1.46364292249335   10.27199068050706    4.34126117531310
H         1.33969598812719    9.61159597717899    3.48155157740570
H         0.70829747777539   10.01047580993325    5.08468582718304
H         6.54218579921884    3.40270757714097    6.89451372316877

