65
CSD_code = POXDIS | q = 0 | S = 0 | Stoichiometry = C28H25N5O4PdS2 | MND = 4
Pd       10.58934567644369    9.03182587777679    9.25082474750551
S        12.06191026084331    6.95672192860825    9.70098037877392
S        11.49304463495356   11.83611075719146    8.61816298649833
O        12.69586221811887    5.86240339796434   10.38041984476996
O        12.75469852935291    8.22921895376640    9.70241795488581
O        12.40914870868059   11.14700906070807    9.49672272733232
O        12.06737124933960   12.58806031269761    7.53353758284100
N        10.57551760144086    7.31457112920531   10.21263458649595
N         7.91067288140282    8.00292706011910    9.18307935446968
N         8.71272522680178    8.91460043486863    8.83129668971434
N        10.47201187915203   10.67330384913607    8.12700487450192
N        10.70286099380784    9.71796184630628   11.76466241693624
C         9.53266953231699    6.46593578491556   10.28509249366284
C         9.67764266092476    5.17973943069993   10.83431205780249
H        10.66947489969387    4.88687178848640   11.14390515508302
C         8.60381624522630    4.33904164683551   10.98513088181901
H         8.74851543527506    3.35889641185151   11.41469785565234
C         7.32334189223686    4.74623180370219   10.59865430188648
H         6.48266702463175    4.08396086974192   10.73674263783271
C         7.14696207687877    5.98363936952410   10.03992175576290
H         6.17280646563942    6.31790387628668    9.71870516493941
C         8.22855001658277    6.86661509847390    9.83977674906617
C         8.23176484227420    9.97591860656502    8.09172931175707
C         6.89676203406430   10.14229773336215    7.70795787794875
H         6.18093111315836    9.37792027704331    7.96618434935578
C         6.52763447969909   11.28072681617266    7.03006621764502
H         5.49945790361389   11.42316065738521    6.73538975463842
C         7.47567305992116   12.26122501675047    6.72407956687771
H         7.16433602800199   13.15155285422077    6.19821447110932
C         8.79685751181806   12.10903202727489    7.07519036574674
H         9.54071466450236   12.85063863172206    6.82943865911502
C         9.20382765629898   10.95213245234042    7.75586243245310
C        10.45973902195967   12.93536795812997    9.58563190733209
C         9.56430159245702   12.39839455824312   10.49315759906709
H         9.52166885593916   11.32303347295860   10.63790124472103
C         8.74133283624557   13.24750253876561   11.20949404415007
H         8.03878505477615   12.83764052448732   11.91980188525151
C         8.80337477908381   14.62718001035138   11.02581748574211
C         9.71204704173316   15.14270733192472   10.10996722210165
H         9.77171438917451   16.21040153050773    9.95712952361638
C        10.53885786151537   14.29863627053329    9.38705955630374
H        11.24392187875447   14.67561245750167    8.66298287885085
C         7.89616989041689   15.52713548935027   11.80732150363100
H         8.07506553567370   16.57076221660644   11.56372275164481
H         8.05213809239962   15.38586180622107   12.87556165977775
H         6.85523637913472   15.29171129808495   11.59083107507519
C        11.68724529695957    6.51022207659189    7.99938865163476
C        11.66216370974378    7.51027521295543    7.03054513317093
H        12.10957109462374    8.48781770793449    7.23438914602226
C        11.14850214501761    7.21842204299685    5.77784681442001
H        11.12798462096976    7.98569653028819    5.01748967763495
C        10.65519717688572    5.94690708320048    5.48454607785709
C        10.71318597914421    4.96066168804077    6.46095873288825
H        10.34844295958293    3.96790250290526    6.24310701055151
C        11.22086958445497    5.24079667728293    7.72094022593922
H        11.26005301963883    4.48578280983940    8.49032398344818
C        10.09417137082873    5.66087572240725    4.12654329626342
H         9.64638700609232    4.67174421432768    4.08790387073943
H        10.88358191509498    5.71289163335687    3.37753523003471
H         9.33988244400181    6.40023078663525    3.86421134918122
C        11.82570649382078    9.81581426517126   11.99254550548346
C        13.21628423218921    9.96093751337933   12.28300885557451
H        13.65660759388961    8.97856811143197   12.44700294726927
H        13.36192260528203   10.59617693791606   13.15572457755086
H        13.66981213947984   10.41087325798427   11.39871237224279

