78
CSD_code = POXDUC | q = 0 | S = 0 | Stoichiometry = C31H40Cl2N2O2W | MND = 6
W         7.20993791674634    5.90699931711144   13.34768047539566
Cl        9.51217800187860    5.91519727732190   13.53523553555757
Cl        7.36905005919330    8.26098244196235   13.17971152429318
O         5.53020672951564    6.04971786864383   12.69325157108513
O         7.30457112394725    4.06991782616489   12.92173992784330
N         6.86304107557533    5.93829919178957   15.09519845056284
N         7.53724458924920    6.07968940695904   10.92737180800713
C         4.65599725256364    5.93502113358379   11.70045656702118
C         3.36366665173357    5.41840291562528   11.91064176843363
C         2.53301882577916    5.32473618412546   10.80634304529205
H         1.53263351939862    4.93897758004993   10.91806652926039
C         2.93674998494258    5.71430070164863    9.53179295722606
C         4.21929274997959    6.20828347307028    9.34969222132015
H         4.54648303103792    6.51175844023051    8.36518137102678
C         5.08521735016107    6.32562823174981   10.42419921255591
C         6.47253331570093    6.89970903643105   10.29050492694801
H         6.49742354575055    7.89078778283286   10.76435920250967
H         6.70288990819809    7.02403885165481    9.22088531000658
C         7.52543908635060    4.73894870197655   10.29688464917687
H         7.74665900970773    4.83477525237991    9.22257672694203
H         6.50855165318603    4.33068707729216   10.40188779149381
C         8.49822533021361    3.78005269540801   10.92889241111507
C         9.54094695338507    3.21260817146213   10.21506507280384
H         9.70296273272138    3.50277447498890    9.18626317302066
C        10.36751457250609    2.27745170811773   10.81296746746954
C        10.10394328163386    1.89110178574533   12.12300197806663
H        10.74752806994175    1.14341756729956   12.55634038444020
C         9.06800119756622    2.42221425291432   12.87546642187550
C         8.28177760936549    3.42329402825695   12.26889488804826
C         8.82344577546592    6.72370461667658   10.61858029161496
H         9.64615387916140    6.09811736282878   10.96665146204755
H         8.88154117766241    7.69402366376927   11.11602982665017
H         8.93207871996288    6.87216666134042    9.53567838831876
C         2.97848995070092    4.97353587111459   13.31403078222342
C         3.91129240215875    3.82602815913861   13.73812877684143
H         3.83944086429769    2.99900169511891   13.03286398949790
H         3.62473977061015    3.46668822687996   14.72412185052991
H         4.95606198215339    4.16296999181898   13.78864476595581
C         3.13305878581354    6.14976792729061   14.29178971245798
H         4.17387556337850    6.47733205399479   14.36404404385332
H         2.81050178205450    5.84821289422798   15.28579386680495
H         2.52339343145650    6.99129129817821   13.96875748215000
C         1.53264115270438    4.47396724511523   13.38491097237395
H         0.83589045792768    5.25678523380135   13.09538452469054
H         1.30297141470614    4.17960295176335   14.40623359829105
H         1.38418180058424    3.60793929219912   12.74416117964844
C         1.98197082513762    5.60081208506223    8.38175937798391
H         2.47995628193224    5.81137432473849    7.43914886393842
H         1.16230971963276    6.30829900602609    8.50307939903955
H         1.55329085543375    4.60123172652361    8.33611758482191
C        11.52684847473933    1.67944026897286   10.07460470709640
H        11.48963258545438    1.93399784483820    9.01864284238499
H        11.52889318656119    0.59566546200991   10.17428164121309
H        12.46433457211571    2.05340525992359   10.48538140410299
C         8.75927781743658    1.95583426622559   14.29254780272286
C         9.66230470800169    0.80081672921478   14.73665043076905
H         9.36906029657146    0.48266632359064   15.73467727755830
H        10.70350245838763    1.11034115932191   14.77770582520249
H         9.56605279925940   -0.05308621359930   14.06993000124004
C         8.95352889954601    3.11885911776382   15.27586225087062
H         8.23515964232094    3.92566752778269   15.08430593337591
H         9.96138220451996    3.52124224519948   15.19125980540913
H         8.80320219760525    2.77173019481603   16.29627437691146
C         7.30273237900629    1.47183816750412   14.34743621300287
H         6.62099477335812    2.27874815388077   14.08816488601228
H         7.06324076365362    1.12834929399743   15.35134380856752
H         7.15088273940601    0.64780152862053   13.65252757174756
C         6.50466691806350    6.04867358247004   16.38077465227390
C         6.70585680216726    7.25936480487158   17.07226646493428
H         7.16081009845398    8.08141269382808   16.53471902561153
C         6.33049306275085    7.38183913724701   18.39148550846404
H         6.49186302866614    8.31793880136968   18.90737406832242
C         5.75052452195991    6.31477114619435   19.06241440485940
H         5.46032181449139    6.41673720126049   20.09746421186320
C         5.54917651510538    5.11549743659497   18.39584562819043
H         5.09926863288804    4.28087412460589   18.91607447153147
C         5.91796932701861    4.97417690803033   17.07565905363804
H         5.76864705964595    4.04287116906639   16.54726162358465

