109
CSD_code = POXKES | q = 1 | S = 0 | Stoichiometry = C42H57N6O2RuS(1+) | MND = 6
Ru        5.09030910886576    2.28934052553561    2.89721793031549
S        10.93907361552702    3.17485483503738    2.33115920748653
O         3.26796616303680    0.47580929414763    1.75501139340130
O         6.51283474885581    3.59349177257917    3.75232738897661
N         4.36144523143623    2.08908414488625    4.80416974660777
N         3.89881588931013    3.93623143004501    2.63489080706332
N         6.04421711055986    2.71260069490750    1.13433207091581
N         6.51610252077302    0.87352918551118    3.30730323256803
N         4.01792741673196    1.21981797196829    2.22049207339496
N         8.12040953975063    4.70786409894487    4.81137138882786
C         4.74859319657692    1.15730920026173    5.71833976990255
C         3.91842261349213    1.25957075249652    6.89472571235986
C         3.02271691488468    2.26440796583036    6.65706641021410
C         3.31117775147145    2.77311913915837    5.33773901243232
C         2.63587026725793    3.81552854076363    4.72250271719079
C         2.92308788985802    4.36514189440153    3.48304255339014
C         2.24369897900674    5.49920127772454    2.90452685705052
C         2.82824762632395    5.72964240674426    1.69048153840181
C         3.86064809218469    4.73343708611896    1.53165541665632
C         4.68186226600447    4.61000627070873    0.42246183433285
C         5.68980395983346    3.67688226804369    0.24133070024528
C         6.52910403162935    3.58431978654434   -0.92944588535771
C         7.38576748251113    2.54055738987739   -0.71793223628208
C         7.07327682735729    2.00704980221981    0.58767255350174
C         7.73926070685452    0.95518841510112    1.19571077766168
C         7.48628739313573    0.43943925939701    2.45660322723958
C         8.22353892083056   -0.63905457308231    3.07299385753423
C         7.67648323327434   -0.82940430131641    4.31090704283045
C         6.60132176589999    0.12536096871178    4.44101641944774
C         5.78159036638598    0.24908874742058    5.55132577091143
C         4.07043041536088    0.42316553470855    8.11901081916776
C         5.19766508203288    0.94228950785598    9.01601645892687
C         1.96548708832796    2.79833588523968    7.56222304869712
C         2.42738145690000    4.07463613586949    8.27146217115842
C         1.15372583514317    6.26762810152019    3.57013724578417
C         1.71582231693827    7.25781600300157    4.59442725543749
C         2.52359009089326    6.80457789175401    0.70400811127568
C         3.50695585085274    7.97182527310603    0.82869229556655
C         6.45585741947335    4.50057556213808   -2.10245753936936
C         7.17676704353276    5.82228528122695   -1.82275802128322
C         8.45827520313398    2.03049305441349   -1.61771812168489
C         9.81837146950009    2.64593003717805   -1.27930018616026
C         9.36290938571931   -1.36700478781467    2.44650366007555
C        10.68642966121697   -0.62459773607092    2.64747231977536
C         8.09082876424201   -1.79338364804391    5.36947862810485
C         8.95983313025993   -1.11439724514996    6.43192742905029
C         6.83452717101770    4.51815869716727    4.50881629544171
C         5.82962391677034    5.44957061879370    5.12236801268855
C         9.17017111394049    3.86989754882918    4.26891692480117
C         9.89312998400666    4.51019106824093    3.07037955945608
C         8.90510905386402    4.92813858186515    1.98816494155384
C        10.77626817898330    5.67609206977974    3.49219423611624
H        11.85443753511985    3.14276744285089    3.29694220979501
H         8.39450918829979    5.48571546359546    5.39186218920195
H         1.81144805036695    4.24851847130852    5.26664785635923
H         4.51704576679279    5.30818063271081   -0.38296414433514
H         8.54503496460289    0.50380193239267    0.63873532052628
H         5.96289222088506   -0.43365369305315    6.36645931380400
H         4.27821871253941   -0.61054570222983    7.83570891888884
H         3.13642092423057    0.43118208509778    8.68204372683224
H         5.30176054947486    0.30693083102130    9.89141679763060
H         4.98144867698567    1.95426203127640    9.35017458931316
H         6.14461925450253    0.95362694775946    8.48051615130704
H         1.71807051957124    2.04650645310259    8.31231754074880
H         1.05950675227244    3.00765735546907    6.99004494431159
H         1.64485312531304    4.44012318544589    8.93079294216102
H         2.66461802385608    4.85552379700616    7.55164899253864
H         3.31476363101301    3.87724516953803    8.86834958838784
H         0.46649523607605    5.58066645553379    4.06769458389461
H         0.58676053916026    6.81813796297574    2.81876489120839
H         0.90607572383710    7.80377643055349    5.07071029105658
H         2.37310124080768    7.97491907476743    4.10818394062999
H         2.28387448976110    6.73933325598002    5.36416065115566
H         2.56736572676176    6.39950587796558   -0.30880895070701
H         1.51091913287850    7.17361409474721    0.87028456598847
H         3.27773115060234    8.73505081980251    0.09001553680542
H         4.52963552954016    7.63449834155819    0.67314570905076
H         3.44040103649578    8.42061200370035    1.81709084999752
H         5.41169842587340    4.70116059190792   -2.35091452515266
H         6.91714802830093    4.02097178828221   -2.96636816994647
H         7.09491899165074    6.48265902898137   -2.68189570710184
H         8.23084695642732    5.64388005908202   -1.62535593594139
H         6.74769709888812    6.32215130718760   -0.95708431024571
H         8.20571371250260    2.27262783635934   -2.65120185238480
H         8.52166300818943    0.94390616025902   -1.53765421403824
H        10.58491214912274    2.24140692607255   -1.93451030838246
H        10.09511295491938    2.43316239744983   -0.24981897039235
H         9.78963579728967    3.72460367848678   -1.41103972688014
H         9.17714614351470   -1.49435667570747    1.37859587465472
H         9.44144428346843   -2.36085421365183    2.88991510800560
H        11.49701413588984   -1.17292329535570    2.17538768820929
H        10.90920405006713   -0.52778513014655    3.70726997059935
H        10.64241237137013    0.37132928787310    2.21329963024746
H         8.65670102091706   -2.60801455297393    4.91632324538292
H         7.20738054343303   -2.22534665282810    5.84402639955767
H         9.24244863586899   -1.83075379093110    7.19866876462501
H         8.42407300889172   -0.29347760168824    6.90386076297416
H         9.86629858895262   -0.71680977353656    5.98177691468889
H         6.29487051427191    6.22130069644751    5.72797255726398
H         5.14234286919146    4.87009929075774    5.73924423390954
H         5.24081138090602    5.91280116097577    4.33067315382713
H         8.70319806390972    2.93486708287385    3.94379915796190
H         9.88761201468963    3.65003993167756    5.06384353109332
H         9.44276182488543    5.23655174637873    1.09511058581134
H         8.29414558216628    5.76374780636053    2.32561850144607
H         8.25234368426863    4.09820904919902    1.72699885748106
H        11.36129810055245    6.02628237320850    2.64512041055076
H        11.46345980780967    5.38512280598117    4.28498884865421
H        10.16715728833915    6.50634427382622    3.84644568315753

