53
CSD_code = POXLAS | q = 0 | S = 0 | Stoichiometry = C24H22N4O2Pd | MND = 4
C         2.45594609067834    7.53906660070895    3.95119471619945
C         1.40680672118108    8.25433511785011    2.10275608437229
C         0.49948114658462    9.01714810311544    1.21322540095394
H        -0.53490143527207    8.69732765668060    1.34607420967633
H         0.77972897035194    8.88259335006608    0.17286594865207
H         0.55951469173417   10.07857106873788    1.45052590366574
C         2.98166497289588    6.91623332865019    2.85035533582955
H         3.75996233736817    6.18136788267916    2.77946149669468
C         2.64914646289921    6.98762279523322    0.36597306765761
H         1.74925382048657    6.63410138631625   -0.14883976477359
H         3.35811351609707    6.15466755566635    0.41374762102353
C         3.26761036084565    8.13729784377957   -0.39902131772043
C         2.99923728016622    8.29943820279757   -1.75140925148489
H         2.34210183338409    7.60426091202191   -2.25515862571101
C         3.57105642682780    9.34377731240095   -2.45661310393213
H         3.35664271484031    9.46063438290634   -3.50821672255516
C         4.67865268362282   10.08182972291707   -0.46435151619521
H         5.32972414739450   10.77654063891908    0.04351361087655
C         4.11392167127811    9.03391458100737    0.24055758318305
H         4.33043229735320    8.91879285934043    1.29289537896711
C         0.70192114982495    9.22626976423060    4.27301289486471
H         0.27936061823505    8.64161014180980    5.10096577392911
H        -0.09366775944665    9.71551426492176    3.71193261790506
C         1.62216784874839   10.34556812030365    4.90366320478477
C         3.39569607667546   10.60447244397213    6.51693127005746
C         3.52100124227352   11.98416954843608    6.47771408167976
H         2.99545118995457   12.54582176870466    5.72251717901950
C         4.31606606750185   12.63561508749288    7.40862923158044
H         4.41595633501310   13.71054987133821    7.36464454090474
C         4.97349546727662   11.91418797409834    8.38936784345600
H         5.58813195496404   12.42608108968909    9.11762221722393
C         4.85319040174377   10.53835208137299    8.44825838981649
H         5.35949606497808    9.96609743895757    9.21300364989910
C         4.07260584358032    9.85239455762666    7.51321533113634
C         5.10575273180420    6.05133599508086    6.48484601293311
H         5.70388592206152    6.87455599774993    6.09653108301733
C         5.68699162198147    5.00368942832599    7.17627311377211
H         6.75271191481035    4.99193008535379    7.34260725216663
C         4.88061362244283    3.98256058104857    7.65667084038231
H         5.30307964138759    3.15434554043845    8.20458630694907
C         3.51465714300294    4.05484267876742    7.41957764121456
H         2.84862400293836    3.28593181241921    7.77848817086343
C         3.01157232574487    5.13834602299689    6.72298767765688
H         1.94802365971514    5.23097661950127    6.51933569218706
C         4.40912361746852   10.23838826844154   -1.81330617545918
H         4.85018941342245   11.05637251669304   -2.36209175106838
N         1.46754111722172    8.35568974098450    3.43097812296793
N         2.32391764284474    7.35295934884153    1.72145617170629
N         3.78862819110621    6.12007333422576    6.26091754081909
N         2.58171101151467    9.83073870886198    5.65382700017734
O         1.33965746090176   11.51049222718056    4.65041768024299
O         3.95135283968700    8.53708351477102    7.56738453325207
Pd        3.11589690791550    7.91636212358729    5.82409880458145

