67
CSD_code = POXPUO | q = 0 | S = 0 | Stoichiometry = C30H28BIrN6O | MND = 5
Ir        3.48177246406367    4.45538893995802    5.30173045290354
N         4.49267427220063    2.88493094186227    7.52273914610250
N         5.47102365335097    3.42623239567492    5.42495438006036
N         2.12907595198924    3.57436169233647    8.04415088171163
N         1.29119964572853    5.72978961395566    8.70340148086882
N         3.97631901426395    5.26690894780198    8.00249261259737
N         4.50252443968259    6.15409046058824    5.87421355354146
O         2.11285271592228    1.92593197007808    4.48220466766553
B         3.41803450986817    3.96579776994307    7.44766478918152
C         2.60929315708038    2.92027665534378    4.79549853708569
C         4.83879745225521    2.04808115227843    8.55185189858190
H         4.20771333418242    1.97440734305463    9.41692190615602
C         6.01205908775587    1.40019782967884    8.29403825221369
H         6.50576906727505    0.68908146345480    8.92573642480231
C         6.45492204541989    1.85292680116686    7.02224398581078
C         5.46585815837687    2.77952614224632    6.58946940140948
C         7.52748976384033    1.62394769884668    6.16727614158306
H         8.31582722816114    0.93220567035334    6.42449311120930
C         7.54399126896113    2.31676425249584    4.96908021873824
H         8.35477662985717    2.17967426992043    4.27077257905495
C         6.51041619503146    3.19093939835821    4.63729947780377
H         6.52302594211026    3.71643095979447    3.69259807914430
C         1.59337668221774    2.30535250509231    8.08229624851169
H         2.15795273343566    1.48003323650330    7.69320969002686
C         0.35217060025902    2.30078041291807    8.63573883825328
H        -0.28077660380422    1.44933899508480    8.78967452176320
C         0.04991154329456    3.65109267045604    8.96649554115197
C         1.18291421670865    4.41536399165781    8.57312438576131
C        -1.02707973408674    4.32707643140609    9.52912519851568
H        -1.91696695257095    3.80139471403812    9.84503602683633
C        -0.91335632709132    5.69789501536776    9.66329093853170
H        -1.71710250490350    6.27890473212393   10.08878204583787
C         0.25093413222680    6.34083655601973    9.24056941323672
H         0.35046209733379    7.41434330174675    9.33962131346559
C         4.18036312714823    5.67233037461005    9.29383199646632
H         3.82512112811842    5.07182006586469   10.10859040748736
C         4.85195626897308    6.86024311881998    9.33858525707050
H         5.14071677603192    7.40253330073806   10.21684925721303
C         5.09546162461127    7.24206434084337    7.99202717104547
C         4.51960149683547    6.20533224736791    7.20478954722963
C         5.70788670312381    8.28571462589870    7.30775445019632
H         6.16426857536736    9.11414172292073    7.82889838845284
C         5.71113746883425    8.22169309162028    5.92376205701398
H         6.17680211992541    9.00315371589027    5.34339364670581
C         5.10722330304477    7.16031124310181    5.25363071087452
H         5.11111155529477    7.13202161656830    4.17228290726967
C         1.72601717476770    5.59792097805780    5.25894713147502
H         1.75794841306988    6.19043644134695    6.18044375598542
C         1.84064554350978    6.55148901088428    4.05086178384783
H         2.78529550198666    6.39852775696754    3.51293465487062
H         1.04633605201091    6.32174050319253    3.33888463044842
C         1.76457009836934    8.03716570816696    4.41625779359563
H         1.83456335350945    8.62391804231391    3.49530334531266
H         2.61446621561643    8.30710858037510    5.04801683781403
C         0.46972770221493    8.41545400131170    5.15152502399244
H         0.50218282153140    8.00545349694181    6.16103612517399
H         0.41588581720734    9.50407946563890    5.22844644154212
C        -0.72632350855897    7.89066113125417    4.42459655504800
H        -1.11809560622109    8.52235475459281    3.63762310179035
C        -1.26255897236475    6.69721924222589    4.63590119532143
H        -2.09243255913818    6.37853577245834    4.01782504510406
C        -0.82138249557313    5.71696382281150    5.67831613619474
H        -1.65359133328369    5.04430133476103    5.89763547515662
H        -0.56643759261159    6.23583079813870    6.60372723641643
C         0.38813548113602    4.85050916854621    5.26361534348259
H         0.44033454504503    4.03035900712492    5.98022408076126
H         0.19420732006560    4.41810658703974    4.27998636952515

