107
CSD_code = POXQEA | q = 1 | S = 0 | Stoichiometry = C52H47ClN2O2P2Rh(1+) | MND = 8
Rh        1.58270644799523    2.42461360249740    4.35060618838637
Cl        1.10487778699227    0.61618582304069    2.95936994051354
P        -0.60853820338850    3.15664300462328    3.93722145015708
P         2.56875546772000    3.26413307645318    2.42347093581988
O        -5.16764157418202    6.71434362067901   -0.76276800719595
O        -2.00580317230096    6.40358455564868   -2.45525067462739
N        -3.63588929681021    5.61489279216404    0.46810047947242
N        -0.57217110370348    5.32597505796855   -1.09665383633494
C         3.21729671488554    1.45952107584421    5.50277260542631
C         1.97904278912286    1.06229814045484    6.12199896561771
C         1.32723576781507    2.23271316925967    6.59161949293219
C         2.17519774326415    3.36797567053084    6.29723360741287
C         3.36412230030558    2.87556594157451    5.67164929723622
C         4.28961708447140    0.49615198440670    5.11463099265542
H         4.74951582164408    0.10092313039547    6.02250592589055
H         5.06405439629977    0.97071392319922    4.51859603589970
H         3.87962384099327   -0.34180630383100    4.55502085437913
C         1.59400003930865   -0.35526933404413    6.38192091943749
H         2.35819192055374   -0.81501598103571    7.01019154235955
H         1.54227700681009   -0.93025178615529    5.45715132975861
H         0.63876174919405   -0.42017409370755    6.89566686819620
C         0.16719690004647    2.27244273478508    7.53158988945803
H         0.52380409003002    2.00378547938416    8.52807635083757
H        -0.61374074583100    1.56856546471771    7.25202974156671
H        -0.25909668060439    3.27024978283392    7.58303258827678
C         2.00078575932029    4.71221986902589    6.93214168179887
H         2.04552989506345    4.59223667262603    8.01584221548449
H         1.03869652618243    5.16087655938441    6.68925887063784
H         2.79188426605259    5.39741678204582    6.64010724005280
C         4.63788134545586    3.62565693453654    5.46661782048296
H         5.25085736026504    3.50573613985527    6.36203268302615
H         4.47222198110398    4.68796135645828    5.30859371258029
H         5.20047242161027    3.23364491492990    4.62196674282929
C        -1.40466454484678    3.36151921279929    2.30073099089313
C        -1.45619884858219    2.23534337095112    1.47029065601320
H        -0.91445556318215    1.34451369406488    1.74447368620782
C        -2.19823889696444    2.25942419101156    0.31356174161603
H        -2.23614078335658    1.38768095555946   -0.32169987745700
C        -2.93748621790362    3.38977618626353   -0.04425017324063
C        -2.89507474957089    4.51999509941962    0.79727924637770
C        -2.12077468352254    4.49726674495074    1.96037568737191
H        -2.11757294586277    5.37340416629593    2.59313583948441
C        -3.75443461961189    3.46060501080606   -1.21935821443216
H        -3.77300621436762    2.59947577964413   -1.87195029532784
C        -4.48603564920906    4.55475851603220   -1.49698197723779
H        -5.11069591088799    4.62230441579820   -2.37294822129678
C        -4.49286810318034    5.72222819384382   -0.62499858541709
C        -0.92018100539865    4.75495003886387    4.75564297438090
C        -0.34373465913440    5.89125356937223    4.18936256757814
H         0.22216358258341    5.79149697293081    3.27275178961429
C        -0.49682696194467    7.12951865059470    4.78353523023572
H        -0.05387533125842    8.00288778401522    4.32896353154172
C        -1.22073896468402    7.24599049951239    5.96056027388628
H        -1.34171530859895    8.21069531033072    6.42792250267900
C        -1.79094057974521    6.12107529734492    6.53343835569850
H        -2.35715126590293    6.20910501575985    7.44821089919094
C        -1.64210845797533    4.87880658685559    5.93828323229127
H        -2.10370528242258    4.01083159430943    6.38572401979449
C        -1.90008596810805    2.05207284343739    4.60744408968943
C        -3.22031300771458    2.50148822493866    4.62460867886621
H        -3.45737899451178    3.49636190001545    4.27389116373198
C        -4.22634416974048    1.67335271863253    5.08294432666247
H        -5.24560099520325    2.02805104342189    5.09794037460434
C        -3.93153170864635    0.38796465987467    5.51258065458345
H        -4.72122616221853   -0.25636561599287    5.86672333084037
C        -2.62665751903405   -0.07074748095783    5.47149662808103
H        -2.39604196321943   -1.07753975595775    5.78606547574357
C        -1.61331288325411    0.75731796186886    5.01795883310051
H        -0.60087998778759    0.38801680115517    4.95918761289213
C         1.66534246424016    3.16609867247337    0.84190628344166
C         1.72472972684285    2.05074919914034    0.00163682912001
H         2.33002876031046    1.20148432281147    0.26845897341906
C         1.01464371019162    2.03422429663423   -1.17642941085370
H         1.06304792575843    1.17058560273771   -1.82211674621180
C         0.22991464826145    3.12383093111739   -1.56234740413549
C         0.17873366663547    4.25224151682626   -0.71962079222024
C         0.88545741531237    4.25441190640767    0.48005777468325
H         0.82761583041637    5.12675508153709    1.11630072424796
C        -0.52737016658153    3.16116982103443   -2.77676343804205
H        -0.48305348741635    2.30029535286902   -3.42825085736604
C        -1.27545854200271    4.23230689534918   -3.09906285812029
H        -1.85429490242498    4.27719488451860   -4.00769639091200
C        -1.34703484337510    5.40946516099926   -2.24552361700142
C         3.00827459008097    5.03517942844216    2.41098436037739
C         3.55238064103749    5.60612792575478    1.26001894657002
H         3.70691431877155    4.99720826863718    0.37991629081249
C         3.88962449827772    6.94601786651274    1.24777626521352
H         4.31140913721812    7.38333995950562    0.35584158300883
C         3.68809741450230    7.72865346501772    2.37609333323166
H         3.95440387815833    8.77409177889818    2.36048385648245
C         3.14058072162755    7.16831399347777    3.51705195568736
H         2.97480947420987    7.77501339524169    4.39496141863916
C         2.80089959244833    5.82532755337190    3.53206751366047
H         2.35050591364799    5.38346601590070    4.40899867587602
C         4.17190148520946    2.44939559797127    2.08167850645673
C         4.23095843784755    1.06897762411343    1.89129944338519
H         3.33897753668425    0.46961003926776    1.98683392717312
C         5.43646424501099    0.44967350646303    1.61325316483085
H         5.46271866679103   -0.61789412472448    1.45597199943836
C         6.60449897260155    1.19065594555898    1.54644171166423
H         7.54407586281028    0.70711545706128    1.32900864016171
C         6.56111145262989    2.55547478927192    1.77642728973654
H         7.46855604054770    3.13946593968060    1.74772540917579
C         5.35727521901009    3.18318670780252    2.04524188847735
H         5.35084367711714    4.24803451688018    2.22345769389166
H        -3.62185123743966    6.42273405938608    1.08019897707555
H        -0.59172406572319    6.14352672766885   -0.49842342052544

