45
CSD_code = POXREC | q = 1 | S = 0 | Stoichiometry = C20H20AgN4(1+) | MND = 4
Ag       21.98200001115173    0.00000295175367    3.79869812805838
N        20.17594654391299   -0.47273738274803    5.27311330034746
C        20.29668263025791   -1.42126679320154    6.19898831136712
H        21.21314033148102   -1.99619661178526    6.17284368804418
C        19.06280226243356    0.25658971607278    5.27318013837812
H        18.99537850609591    1.01892729343785    4.50832186175386
C        18.16705739593533   -0.91777979458522    7.14442581244752
H        17.38730404334700   -1.09090969220543    7.87006908716746
C        19.32459570961794   -1.68041507206541    7.15013341771963
H        19.47230640922439   -2.46229757287685    7.87768806548182
C        18.03588951700484    0.07247913009241    6.18347086651809
H        17.15425892163029    0.69150360184958    6.13874536764678
N        23.78806143233569    0.47274963790519    5.27310118388470
C        23.66732639220495    1.42127776194955    6.19897767184338
H        22.75087447687202    1.99621647069322    6.17282674842726
C        24.90119919340911   -0.25658746780914    5.27317502716219
H        24.96862296976478   -1.01892246416658    4.50831421471247
C        25.79693862931084    0.91776783875833    7.14443218609393
H        26.57668706571827    1.09088788025376    7.87008307087179
C        24.63940775928321    1.68041441807289    7.15013163514552
H        24.49169836371221    2.46229640709433    7.87768709364070
C        25.92810569238942   -0.07248929904193    6.18347527840517
H        26.80973080797131   -0.69152200585814    6.13875562609154
N        21.50924167867578    1.80606207301881    2.32429680786977
C        20.56071625892000    1.68532767536530    1.39841765050246
H        19.98577644804979    0.76887641329591    1.42456691368205
C        22.23857908507363    2.91919971773167    2.32422540229941
H        23.00091132396591    2.98662321712287    3.08908901889776
C        21.06423044585464    3.81493937895588    0.45296424012243
H        20.89111359375155    4.59468768591717   -0.27268750846648
C        20.30158285126168    2.65740922649439    0.44726287417385
H        19.51970282015383    2.50970021711284   -0.28029472188740
C        22.05448447321760    3.94610606591707    1.41392440202654
H        22.67351782424805    4.82773062846307    1.45864580256469
N        22.45476051131758   -1.80606205262466    2.32430248041601
C        23.40328516480276   -1.68532832421602    1.39842248085635
H        23.97822704853865   -0.76887839674046    1.42457263304357
C        21.72542081104661   -2.91919816972345    2.32423016653840
H        20.96308976294911   -2.98662178310154    3.08909490338564
C        22.89976533657898   -3.81493745324567    0.45296624566453
H        23.07287965037102   -4.59468493003417   -0.27268697338824
C        23.66241550139534   -2.65740900249401    0.44726596886714
H        24.44429514527815   -2.50970068850317   -0.28029220028491
C        21.90951211491376   -3.94610353134678    1.41392732786597
H        21.29047708457026   -4.82772691895790    1.45864830403838

