119
CSD_code = POXRAW | q = 0 | S = 0 | Stoichiometry = C56H48B2F4N8Ni | MND = 4
C         3.20982566097400    7.73709070627100   -2.00153931205725
H         4.18577114005145    7.89942265592521   -2.45785132029091
H         2.76721113737509    8.69177258205596   -1.73238038914556
H         2.59139215982492    7.23892067907104   -2.74697933411902
C         3.35355333597345    6.87189357164255   -0.81141478432670
C         3.04051432984257    7.16926171169677    0.52663698161758
H         2.63887549586185    8.10037611112290    0.87567425723782
C         3.34993923991910    6.05957282749777    1.27904688544887
H         3.25363318928749    5.93990849677122    2.34035762688880
C         3.84656098074931    5.08365543724028    0.38515124356453
C         4.32767263471673    3.79674439089045    0.62636039718407
C         4.81720848992327    3.03036685081559   -0.43150677050082
C         5.30774537597099    1.70479055035946   -0.45339479816740
H         5.39502733220823    1.05911154767146    0.39831236952987
C         5.62578097153301    1.41849020146760   -1.76105718185158
H         6.02601843431154    0.50150937164170   -2.14712579830495
C         5.32300274632641    2.55760931705261   -2.52755546596769
C         5.47532312085821    2.74928724392700   -3.98548227656128
H         4.50535593685227    2.96858019664377   -4.43042579748129
H         5.89973943095355    1.86287311020185   -4.44798787099692
H         6.11399940722388    3.61000191104468   -4.17967238637016
C         4.30849167533997    3.24383419319972    1.98562746881385
C         3.11597629406172    3.18439850285459    2.70283983611453
H         2.20548439749529    3.54473136740111    2.24797554877034
C         3.08904099216175    2.63424991121952    3.96897886438067
H         2.15862812554375    2.57526730498760    4.51413449733344
C         4.25629740261569    2.15849746685736    4.55730032452044
C         5.45144849045981    2.23688691318859    3.85056676275174
H         6.36008349452365    1.87106063900259    4.30514757806694
C         5.47559982041515    2.76120094900968    2.57294477669959
H         6.40624615327885    2.82163446777327    2.02892097421934
C         5.87939377719272    2.56481701137268   10.40180167552174
H         5.16201779673559    3.09883137035801   11.02549217185118
H         6.86772857770803    2.97571147315630   10.59651783395438
H         5.86014286687972    1.51244149135774   10.67959520396955
C         5.54736058598651    2.71186347297507    8.96050480773468
C         6.00511377983841    3.75467367410478    8.11682374779740
H         6.61575936890380    4.58074062838549    8.42723899884555
C         5.52133329832881    3.49457429120580    6.86400422457584
H         5.66819652027788    4.06422909389717    5.96688212000242
C         4.79126586307663    2.27525556757122    6.95902805710813
C         4.21631083435389    1.56667183642817    5.91045645374580
C         3.60752916239601    0.31280058964578    6.04049642351882
C         3.01048666690246   -0.45487546459254    5.00937713611407
H         2.95680343772180   -0.17454972655981    3.97528001150903
C         2.51531442919673   -1.59452099014603    5.59824260447560
H         1.98810610329764   -2.40072984100725    5.12511111529185
C         2.82138924344443   -1.51283915904272    6.96963268770312
C         2.46037506545801   -2.50606229731701    8.02292686061187
H         2.47457832187503   -2.03910031060191    9.01267777252811
H         3.16606421725156   -3.33786381521954    8.02795308274503
H         1.46568968140830   -2.90620574619407    7.83369815969130
C         5.73772622455011   -2.46896425888654   21.83907947149936
H         4.79159121905233   -2.78086658336628   22.28020472967996
H         6.08792497770458   -1.56262036781558   22.32453135384443
H         6.44722016545322   -3.27782753003762   22.00844909593895
C         5.56309562272475   -2.25189961233405   20.38721880502137
C         5.75160227888391   -1.06773107037768   19.65305887437838
H         6.06233513250564   -0.12751320025433   20.06479084971192
C         5.45886064930357   -1.34677922497318   18.33792819160976
H         5.48042938593372   -0.67192509694104   17.50486289783930
C         5.09911597670609   -2.71257903124088   18.27872846406691
C         4.68419062374338   -3.49341481188806   17.19970405531468
C         4.33050819567950   -4.82716925625604   17.40538654363754
C         3.92947121431960   -5.82212182149812   16.48481125009120
H         3.82093805135686   -5.68401398468061   15.42694253555860
C         3.72952839664456   -6.97644118512480   17.20652364637006
H         3.41929269238385   -7.93222707779464   16.83189652923508
C         4.01414143434105   -6.68653861186876   18.55249674335754
C         3.95571331828733   -7.59331946194603   19.71867822361069
H         4.94166609891024   -7.66773569588667   20.17619428516997
H         3.61314191051449   -8.58046489513087   19.42210668251404
H         3.28750822826237   -7.18066429242274   20.47340614184032
C         4.61056243269908   -2.91039361670700   15.85488080923933
C         3.41914416821546   -2.95373172305911   15.13454587880076
H         2.54789950850981   -3.41150040393856   15.57851196144820
C         3.34031414306277   -2.38442886709536   13.87912514263741
H         2.40986359495542   -2.40866582500354   13.33137653527177
C         4.45603012313510   -1.78479941804779   13.30365978411834
C         5.65073255347857   -1.75586711268269   14.01511527055984
H         6.51932686182026   -1.29168059528378   13.57222421574597
C         5.72429798188732   -2.30049309365257   15.28238761933825
H         6.65531006076471   -2.27866252766613   15.82871581866551
C         2.14788954267777    2.66282756557692    9.85186328724224
H         2.23198110605915    2.20711312091116    8.86007855121537
H         2.74394341703361    3.57657575011145    9.85949269235576
H         1.10851329505714    2.93375009151298   10.03093248036411
C         2.61842212838119    1.71530828200746   10.90438721027469
C         2.29205458827744    1.75031078383124   12.27322635031112
H         1.66716771657318    2.48394563211635   12.74553004307389
C         2.91497353983379    0.67442509720806   12.86064802503160
H         2.88577216084947    0.38293650431067   13.89260704894903
C         3.60965426169980   -0.00913750510773   11.83130824011056
C         4.36123354776242   -1.18335630313133   11.95775909377204
C         5.02527087042518   -1.80680534125741   10.90701616724595
C         5.89759270074502   -2.92911653216544   10.99477857376099
H         6.10695193910745   -3.48769603324028   11.88636739531929
C         6.41905191941339   -3.11315024017224    9.74337721091781
H         7.12859959679860   -3.85460067885565    9.42963920842604
C         5.84348307876786   -2.12480159233643    8.90686181323751
C         6.16630342501133   -1.92097187429833    7.47037652058000
H         5.52638333768045   -2.53302028004415    6.83421496559584
H         7.19981749761458   -2.20305612577893    7.28121207367664
H         6.01846413964233   -0.87605004178469    7.20346201433777
B         4.33725980248238    4.90633731395415   -2.15250484718230
B         4.80909979709060   -4.67362688133364   19.94687662495008
N         3.83667888204996    5.62756589900339   -0.88258244997971
N         4.83947522096369    3.51064259586810   -1.72454657874983
N         4.80847504518076    1.84539123515684    8.27540318933390
N         3.48265663339707   -0.38038524800139    7.22645724772814
N         5.17155796235245   -3.22434854769364   19.55783069105881
N         4.37494652650209   -5.40373913372874   18.65786984202838
N         3.41425184448859    0.67308567830334   10.64832815021253
N         4.99913416966046   -1.36347693298050    9.59534665494588
F         3.30166702385254    4.77642921404824   -3.06298794635100
F         5.36886743361114    5.62637185131392   -2.73034379833119
F         3.77076979182743   -4.67082350036089   20.86324258883474
F         5.90880672703719   -5.30628077247520   20.50124928795077
Ni        3.75403910945106    0.16810286709471    8.93733591533839

