86
CSD_code = POYFEP | q = 0 | S = 0 | Stoichiometry = C36H46BrN2Rh | MND = 6
C         5.01139197589575    1.47617194920977    6.50684739947944
C         6.84908588530759    2.71348555637778    6.79827741655763
H         7.61060229025109    3.42184647924892    6.54591091441277
C         6.63235412959873    2.03257967774406    7.94418075364846
H         7.16111476345556    2.03076362583187    8.87459764465058
C         5.07166603169174    0.30202369946926    8.69781264278317
C         3.96205446598347    0.56070383629211    9.50390577844171
C         3.14506599914688    1.81804600534773    9.34932784501646
H         3.64570440604869    2.49483149077203    8.65140434901237
C         1.79130922615686    1.44593964091555    8.74256821016048
H         1.95944052701887    0.93306469860249    7.78702819663809
H         1.20806249527227    2.34365316529442    8.55487720835434
H         1.23147077182308    0.78593556165156    9.40174209512343
C         2.97667793072119    2.55929810431093   10.67547845270895
H         2.38489585058747    1.98297531044641   11.38225926904321
H         2.47024564873052    3.50495262185433   10.49925959803502
H         3.94636155599207    2.76556683963046   11.12479436049039
C         3.59290487559465   -0.39854946186593   10.43928025444091
H         2.73303755768542   -0.22493950978400   11.06688794087838
C         4.31286896917972   -1.56734948898126   10.58138063459600
H         4.01685054288227   -2.29885756037902   11.31872964433609
C         5.41275361691815   -1.80511920562085    9.77921239892057
H         5.96824300048480   -2.72211919715797    9.89988543801161
C         5.80921109818591   -0.88255314754590    8.82111373980868
C         7.01668329974701   -1.17111394472094    7.95642753788284
H         7.08768013234371   -0.41195146601807    7.17117205378816
C         6.90792787228448   -2.53364674182042    7.26725104033430
H         6.93921912003854   -3.34497740049321    7.98931610345115
H         7.73913253334903   -2.66395847512799    6.57729915731779
H         5.97978848312891   -2.60827615494467    6.70552391097549
C         8.29292786154123   -1.10472117249212    8.80029163420282
H         8.27031849405255   -1.85545584831657    9.58642768893439
H         8.39928299849237   -0.12749898534665    9.26579469969373
H         9.16530171769450   -1.28504899936471    8.17604602223323
C         5.77682951167323    2.80305510004226    4.55991784791177
H         5.75552632771215    3.89604959806288    4.53799485829065
H         4.83104826586502    2.43405647758890    4.13994338981155
C         6.94244819496657    2.26314079431589    3.72025190197337
H         7.89362302990555    2.55210906098679    4.16481298612194
H         6.88852846358066    1.17109221581606    3.71388168143199
C         6.82794247250346    2.76618380984603    2.31598474980150
C         6.18788513499511    2.10766919955924    1.33842681316945
H         5.72569587714396    1.13996574022050    1.42582815307465
C         6.17969409263051    2.88010478190554    0.06396517892387
H         6.66488979423158    2.33718862455444   -0.75141361428650
H         5.16176704067564    3.10841132646080   -0.26257102034989
C         6.93239825214931    4.11588238302058    0.44082826890547
C         7.31793701574890    4.04203175315915    1.79041506201955
C         8.04849941133794    5.08663419172290    2.36145737018889
C         8.35000833390925    6.16887342224787    1.54335522011030
H         8.91281385702496    6.99345956866644    1.95831020391034
C         7.95743299058192    6.23294491195469    0.21778303959366
H         8.21775460956445    7.10058828959367   -0.37133928685136
C         7.23640908033275    5.19877298933043   -0.36471465276959
C         6.80175794293728    5.24383865135405   -1.79722103352493
H         7.12949321836132    6.16501736992554   -2.27197344053535
H         5.71593932316686    5.18366594569156   -1.86661749212756
H         7.21671959979073    4.40053285331194   -2.34895470908476
C         8.52546266948058    5.09952950069636    3.78400658865773
H         7.69215309197380    5.00561520005386    4.47737625339523
H         9.03631356959103    6.03605670585937    3.99692338772846
H         9.22774101430458    4.28593183998260    3.96546402646383
C         3.46741770869113   -1.17649773826035    5.91509348307851
H         3.98133647945737   -1.35872671897339    6.85802252600320
C         4.24875972183345   -0.78268253770291    4.82416638213431
H         5.32994600433703   -0.74282186224506    4.97034995788638
C         3.86436817735309   -0.99506407446720    3.37748401519376
H         4.00314714021369   -2.05077069311575    3.11491798237902
H         4.55781600472018   -0.41860755701294    2.75879253374332
C         2.42362963712336   -0.55476557605127    3.05768118226034
H         2.37883959875998   -0.22011842039839    2.01875700977404
H         1.73960522208374   -1.39999779683646    3.15292978369667
C         1.94693371641145    0.56568338193154    3.95602834677721
H         1.82332732944650    1.52946196931552    3.46026353832064
C         1.25895495312204    0.34939460077686    5.13319532624954
H         0.59282065416151    1.13598464053637    5.48762056606138
C         0.93799817218905   -1.01843100219644    5.68956154684611
H         0.52040216209527   -0.89293869813440    6.69135777616023
H         0.15936309241024   -1.48234674228480    5.07310142568217
C         2.16905284917443   -1.94237204991012    5.76913007344029
H         2.05476485360807   -2.60765085745024    6.62796515289134
H         2.22818661970088   -2.57344127357650    4.87971856446077
Br        2.62691504236047    3.26868674746193    5.82513535204959
N         5.85760047263389    2.35247076841353    5.92640902370898
N         5.50639932634140    1.26875518091747    7.74891785830572
Rh        3.28966674837539    0.92229250007172    5.61986682656210

