64
CSD_code = POYFIS | q = 0 | S = 0 | Stoichiometry = C19H37IO4P2W | MND = 7
W         6.30355319681655    4.99683758301829    3.79664922302594
I         4.74772618153950    2.99305454561694    2.65594157894711
P         5.06875976935264    7.06775859809266    3.18541758180522
C         3.40749824754824    6.75038215268527    2.43253587913737
C         3.48836661921352    6.33170845612715    0.96938129774579
C         4.60445774232607    8.13615412493525    4.64094055943313
C         4.08904319449644    9.53993653645410    4.34519894582323
C         5.78011715047435    8.31482827772610    2.02206219110881
C         7.13959885532720    8.80730009711864    2.50092618301835
P         8.53451047100177    3.96393080017200    3.40816885488006
C         8.62099966115033    2.45902489071274    2.32659013143318
C         8.30258794984395    2.71614542005026    0.86005250621318
C         9.40785242851101    3.23874854168116    4.87197110102495
C         9.55689369447811    4.21165763115004    6.03064259429722
C         9.81552231522981    5.10314818574623    2.70246900815227
C        11.22889324274347    4.55307712107756    2.55114165252120
O         4.49849538999718    5.29482375758077    4.97017343091160
C         3.98562971385269    4.65632404423173    5.93937568894427
C         4.57004247730049    3.55942762194116    6.57270051535643
C         5.82205448591265    3.03967176681942    6.23065701444856
O         6.56357797663294    3.47732529353311    5.30394631640297
C         2.65471568400062    5.15486291217879    6.46100819152921
C         6.36075560840664    1.88872564696435    7.05347785487148
C         7.32809308778150    6.30153584334936    4.83743277466930
O         7.92946334206166    7.10524841100409    5.43029642649441
C         6.84817871075966    5.50327174387965    1.95837685030675
O         7.15669588716086    5.78742929986932    0.86399000271847
H         2.96422885314855    5.94095548477718    3.02170994697933
H         2.78003406194888    7.63954281530039    2.54469199356399
H         2.53372597360701    5.92300277245892    0.64509839079205
H         4.24298281985237    5.55919129184550    0.83129913976682
H         3.73419986527840    7.17549303079117    0.32869459585244
H         3.84248855615710    7.57596300632747    5.18713341175780
H         5.48724403643453    8.19533095833484    5.28313514758975
H         3.72188715272955    9.98627805965088    5.26828866862588
H         3.26623257340480    9.52607481337667    3.63345545085895
H         4.87467233294953   10.18275680719933    3.95711558027650
H         5.88722035079436    7.84613408000711    1.04198574512639
H         5.07369007034966    9.14263081155268    1.92305276722998
H         7.83534672651233    7.97115960351936    2.57245334823624
H         7.06967798408863    9.27155016534624    3.48236275328835
H         7.54789423672268    9.53665287479602    1.80349891154266
H         9.61227058149452    2.00639818213916    2.43144344839633
H         7.88700460023890    1.75702629967302    2.73879830288232
H         9.00403935551007    3.42030789731217    0.41769083755756
H         7.29625833309744    3.11154031409656    0.74631938421629
H         8.35559908858182    1.78309532211090    0.30236493052378
H         8.82430822348656    2.36994763052149    5.18544448352989
H        10.38654179641637    2.88416027939518    4.53624125566661
H        10.07809745419090    3.73645050905361    6.86052945373491
H         8.57639456885927    4.53147157033311    6.37950593316305
H        10.11914556982953    5.09468837004614    5.73342907786414
H         9.44584023593826    5.42524850154058    1.72585999260551
H         9.82194156592645    5.98523043152612    3.35100956661171
H        11.84677384531774    5.28486041915493    2.03345428718249
H        11.23584592177987    3.63690158934073    1.96581805170348
H        11.68844859778977    4.35722367247213    3.51649422783903
H         4.03436163415039    3.10053405557786    7.38786981864795
H         2.03720412682492    4.32303122915655    6.78570227540970
H         2.13283445456414    5.71185841491196    5.68549993932425
H         2.82055461319651    5.81481440091581    7.31238578967811
H         6.93716496542046    2.28087811907964    7.89141414872226
H         7.01738993709765    1.27134602523103    6.44424464788853
H         5.55047185198328    1.28033088755490    7.44267994005034

