64
CSD_code = POYFEO | q = 0 | S = 0 | Stoichiometry = C19H37IMoO4P2 | MND = 7
Mo        2.24482855440881    7.92908860821038    3.61470460562473
I        -0.07100827159650    6.32250580419448    3.27649158803827
P         3.91097123921933    6.14180887863416    3.86798582840724
C         3.18760196455077    4.47448849717930    4.18820881005928
C         2.77993135819988    3.74454596274532    2.91274934449423
C         5.00285921895186    6.41232973016075    5.34468239629768
C         6.15925346665845    5.44124040546563    5.55640361315954
C         5.17404581402034    5.72955261037172    2.58720577965896
C         6.09426332746274    6.90228048132340    2.27831926370465
P         1.60507970972804    9.69855485857113    2.02499795153896
C        -0.08539328940458    9.59761197897495    1.28232153180578
C        -1.22466361490252    9.86813989178603    2.25608080652706
C         1.66843605662725   11.38321462780351    2.78270238632983
C         1.31346758144665   12.55869577631725    1.87971988133237
C         2.55260073190079    9.96681717628941    0.46354169140212
C         4.02227895855714   10.27398356353761    0.71077678845671
O         0.87347370002421    9.21761107482589    4.57102880695594
C         0.27578396407546    9.13022286211744    5.67949042566154
C         0.50314827513330    8.14614268398286    6.64468261316633
C         1.46214040868739    7.14240743981087    6.51788488190600
O         2.22882363534044    6.99256757332719    5.52288282817833
C        -0.78222895772947   10.17175047107996    5.97996496256545
C         1.61292211213009    6.16053740839971    7.66098885612079
C         2.73973752915004    7.30516191029876    1.83931254393402
O         2.95971438453572    6.89685210117014    0.77605959422151
C         3.72303315092133    9.08814048948754    4.02568118467803
O         4.61543278694644    9.78902097773138    4.25397322997250
H         3.90742426728960    3.87694869461120    4.75624468990575
H         2.30620835990454    4.63674941466011    4.81596754083227
H         2.14045168572174    2.89967272469964    3.15996298996063
H         3.64696841610788    3.37005242740831    2.37315995783098
H         2.21575879736693    4.40218080326281    2.25328994649401
H         5.38913334979736    7.43154677885136    5.25103459809027
H         4.34655113367999    6.39456896490359    6.21772230897996
H         6.62611129054826    5.65141147561395    6.51773515391432
H         6.92190851242827    5.54584353008519    4.78931424650250
H         5.82272148273852    4.40674993503580    5.57179444460983
H         5.74672961378468    4.86913289982192    2.94633157345055
H         4.65184305122170    5.42667351469056    1.67662122829187
H         6.79885306984805    6.63433793124872    1.49279763774494
H         6.65957717747552    7.21065541102808    3.15469293351941
H         5.51152767786972    7.75602044303425    1.93651580729635
H        -0.13367471232513   10.29096040460069    0.43564232807345
H        -0.17344854459759    8.57850328850267    0.88672144211477
H        -2.17914878854386    9.68052594272598    1.76769861379156
H        -1.21247958844666   10.89968452096516    2.60241666700306
H        -1.15669206267350    9.21003672978895    3.11803118187189
H         0.99502400844150   11.35345543087350    3.64173555508741
H         2.68382608230803   11.49778212298220    3.17477026460974
H         2.05475749559991   12.70210347654611    1.09751604168278
H         1.27991293345583   13.47093374443893    2.47391919141310
H         0.33898585764836   12.42562791585793    1.41561715495566
H         2.45052521219151    9.06465661340237   -0.14681284779416
H         2.07985378428190   10.78781783712005   -0.08323480381411
H         4.56524487969247   10.32025496301169   -0.23149790587804
H         4.47210995162673    9.49890241592754    1.32941138762885
H         4.14413837029036   11.22601242156260    1.22260774182147
H        -0.08639253479874    8.17248451731812    7.54739168943334
H        -0.74575393572628   10.47025017190784    7.02402672477539
H        -1.76455536490623    9.74487515679805    5.77847926950837
H        -0.64936245433765   11.04482098550249    5.34450792715350
H         0.68154649967079    5.61203212645283    7.78950824047245
H         1.82931920978111    6.68758545343877    8.58805782166501
H         2.41336202052982    5.45367496751884    7.44995906282128

