106
CSD_code = POYFAK | q = 0 | S = 0 | Stoichiometry = C57H43NO2P2Ru | MND = 8
Ru        1.31405485508327    3.19369017937364    4.94339742685507
P         1.28721313727193    3.91814922042153    2.79235086183114
P        -0.76610293442764    3.85329900334513    5.55483872218623
O        -3.24508679933385  -11.53259415559701   -0.04288704256140
O        -3.55826009547597  -11.99804826317413    2.03470054148081
N        -3.25473207490946  -11.23245327618362    1.13744989138388
C         0.50204235847927    1.46013710062038    4.38435505334769
C         0.15332187578651    0.31582941273500    4.16274092013082
C        -0.27146474820080   -0.98602711217962    3.83348274059597
C        -0.62462728560994   -1.90375998600360    4.83176120211960
C        -1.02581858480898   -3.17628460418378    4.50197682371145
C        -1.08492308639015   -3.57257175835358    3.15968313565940
C        -0.73923787686385   -2.65500293764386    2.15832247687087
C        -0.34049235025826   -1.38290860212568    2.49021098198227
C        -2.16859208366719   -7.31327121459766    2.17918189175207
C        -2.53253109544266   -8.23367300378877    3.17361780463230
C        -2.88858195691693   -9.51690732847618    2.83306306221871
C        -2.88594133855166   -9.89876869219317    1.49188968443042
C        -2.52739827765118   -8.99504468172043    0.49224565193876
C        -2.17183596829504   -7.71205578141113    0.83383076740175
C        -1.47535598667371   -4.87649589776684    2.82032569674073
C        -1.79953781059267   -6.00576801692492    2.52538273259857
C         3.55248242909286    3.27517893388522    5.10922112444149
C         3.10627237718672    2.14098373658851    5.82397265341366
C         2.26124217374682    2.58569355630327    6.87302163598327
C         2.23140695075235    4.00948035445439    6.82624710615592
C         3.01817718711126    4.43761308706407    5.74066571551551
C        -0.10501881651769    3.80551663893381    1.61001105879973
C        -0.84375274626811    2.62645150618639    1.63796273336408
C        -1.82787286358826    2.39592930463209    0.69566952751040
C        -2.08811014044014    3.34411074417515   -0.27991583278120
C        -1.35371609013894    4.51760407478859   -0.31368776940493
C        -0.35680804213693    4.74714846389688    0.61800748985492
C         2.49886947903115    3.09521421105250    1.69369150217516
C         2.91573486939379    1.80775119194671    2.00855124811595
C         3.78220386065513    1.13081265833845    1.16854218525849
C         4.23589710593493    1.73584537332520    0.00857782503680
C         3.81000474327712    3.01418253484183   -0.31764986036414
C         2.93773008231226    3.69042643763081    0.51432116814479
C         1.78126565844042    5.66875363995912    2.69883528778449
C         0.81322197352118    6.65751565394657    2.85767814372518
C         1.17582897162732    7.98952648396068    2.92184086321748
C         2.51257875331554    8.34825562063601    2.84990723689606
C         3.48433120691318    7.36908931787416    2.71831153415376
C         3.12331064832719    6.03584625921183    2.64838116762258
C        -2.21872746901779    3.40543757763663    4.53891297752722
C        -2.84786629987567    2.17112972930885    4.65564470219791
C        -3.90025145373447    1.84557152995163    3.81872977473951
C        -4.33809235725689    2.74564656833047    2.86218009291138
C        -3.71076941877638    3.97390089003406    2.73454625298604
C        -2.65071509859408    4.29640881638801    3.55901042342801
C        -1.18478123348126    3.13922105748909    7.19010394631662
C        -1.62327179059725    3.88782962842278    8.27655167487715
C        -1.87232688751159    3.27171108534390    9.49168832602625
C        -1.68866999971776    1.90803374070272    9.63766872175930
C        -1.23314335912178    1.15854536279415    8.56456093405244
C        -0.97117516507492    1.77051720903240    7.35367764972906
C        -1.11688852659938    5.62614568851619    5.84072025809348
C        -2.41389886619070    6.07636321109049    6.08579424399067
C        -2.64826298689714    7.41678000767970    6.32578412390071
C        -1.59616059685552    8.32097412243106    6.32845796010961
C        -0.30684548409766    7.88029527561747    6.08720489231735
C        -0.07106459793824    6.53835919003891    5.84311998077739
H        -0.57464544981941   -1.60012707771737    5.86832460199024
H        -1.29529902581924   -3.88457335665306    5.27291155780964
H        -0.78670180921474   -2.96263582699186    1.12311172113998
H        -0.06889359658998   -0.67395973295136    1.72015402735618
H        -2.52871610547686   -7.92174390734880    4.20715919082364
H        -3.17147160645902  -10.24071021267199    3.58212734281146
H        -2.53557017254583   -9.32256518670725   -0.53623952078576
H        -1.89081247279135   -6.99981933083643    0.07279401243318
H         4.31062160956983    3.27277500938429    4.33479571169480
H         3.43488377428903    1.12162510799414    5.66572479891429
H         1.88807221236045    1.97855726622143    7.68768378312052
H         1.77840686924846    4.64461519048216    7.57875685385873
H         3.31682576711392    5.45558743547253    5.52510825526117
H        -0.63805424229996    1.90381563632807    2.41665029465219
H        -2.39358809835976    1.47640300275654    0.72476587392511
H        -2.85926019732076    3.16901133252279   -1.01580481038968
H        -1.55131731710525    5.25691601460147   -1.07686732970695
H         0.21690464294672    5.66185272194673    0.57001588068190
H         2.54415072780629    1.34205897265333    2.91418163107326
H         4.10284721446177    0.12989631516429    1.41860964939581
H         4.91654555631004    1.21115556953835   -0.64573698648355
H         4.15674269679122    3.48318166053049   -1.22718928251176
H         2.59935696742955    4.68348530620734    0.25270135627158
H        -0.22677821179604    6.36855489388870    2.93195342715696
H         0.41539243412626    8.74864721012191    3.03577998852349
H         2.79803417903260    9.38865683038404    2.90240510776126
H         4.52797055457084    7.64618923448778    2.67295906336174
H         3.88353867656138    5.27223348112726    2.54885877950339
H        -2.52084603651137    1.46677942475178    5.40463746687911
H        -4.38290572876408    0.88410357372391    3.91734190795802
H        -5.16517931726219    2.49112282594022    2.21603688714020
H        -4.04332962926995    4.67839207605529    1.98629414105828
H        -2.15745335716840    5.25290752172507    3.45175718212212
H        -1.76483196711128    4.95501547227573    8.18610628070346
H        -2.20923705672802    3.86445358848762   10.32998411316581
H        -1.88692254851654    1.43275825277586   10.58706027437083
H        -1.07153223575713    0.09599747059036    8.67782518455737
H        -0.57260489754510    1.19935106188227    6.52317094448182
H        -3.23388459001055    5.37086095167119    6.08417894760148
H        -3.65519696790500    7.76020445492301    6.51418030588400
H        -1.78510513414931    9.36750598147852    6.51770353822529
H         0.51618529037897    8.58039170701167    6.08523019121679
H         0.93207854646056    6.19100199812392    5.63775594733651

