45
CSD_code = POYHOB | q = 1 | S = 0 | Stoichiometry = C18H18AuI2N6(1+) | MND = 4
Au        3.89444698721556    5.20926661348760   -0.00035623953109
I         1.53559708333922    4.09379763726440   -0.28857435639979
N         4.81800707381262    3.31499719887225    2.24154697930430
N         3.31094020920894    4.73700229405740    2.82022758940399
N         2.87161480841347    6.76144545767021    1.83007729881551
C         4.08067864942260    4.32948316907108    1.78579435119059
C         4.50597455230711    3.06576394176218    3.55252666864461
H         4.98280353749507    2.28645819572810    4.11022533201673
C         3.55930531990399    3.95724244172907    3.92004168992638
H         3.07771736092845    4.10570325345990    4.86290261971108
C         5.84896387200071    2.59715178522477    1.54473438293881
H         6.10138633552605    3.10914806506734    0.61965437805805
H         5.51905529872625    1.57989740152212    1.32535879725717
H         6.73970774411575    2.54897865578538    2.17198870006082
C         2.53518308264278    5.90533863746240    2.78907312114447
C         1.54052687311871    6.15596349237474    3.72349664690880
H         1.25906334431821    5.41492956578941    4.45275245353604
C         0.90642753431929    7.38688995557477    3.67527252963581
H         0.12125883207601    7.61897693339256    4.37742621786220
C         1.30883739929564    8.31632901500131    2.72798528897431
H         0.86786872336357    9.29814973793732    2.68568787339335
C         2.29066124240623    7.95162381621350    1.82243806281871
H         2.64938934109997    8.64190387539321    1.07355209059864
I         6.25290667201791    6.32567943170621    0.28845089624192
N         2.97014815085303    7.10517654294503   -2.24146392642673
N         4.47720166999648    5.68308914447571   -2.82018168927510
N         4.91649239389954    3.65862220579749   -1.83010972478208
C         3.70773658641948    6.09084035122794   -1.78562037517946
C         3.28199028534080    7.35420999723025   -3.55253367799203
H         2.80498280537424    8.13334313849400   -4.11034639047451
C         4.22871476919441    6.46279988190450   -3.91999956713478
H         4.71015031916111    6.31417687809760   -4.86290895980336
C         1.93921080857821    7.82307452501046   -1.54467538715315
H         1.68648739318973    7.31130932154926   -0.61971181684749
H         2.26908884030128    8.84008826901688   -1.32528233107603
H         1.04864158245665    7.87138026528382   -2.17183792786494
C         5.25293701877262    4.51471436469424   -2.78907262522101
C         6.24760046055779    4.26408300624655   -3.72353155952947
H         6.52902886999516    5.00514106830699   -4.45277694165719
C         6.88180290950414    3.03317742719591   -3.67526860863523
H         7.66698442667526    2.80110656827247   -4.37740571697063
C         6.47937693262824    2.10375008176455   -2.72796760984176
H         6.92033382180085    1.12191788783056   -2.68568599913264
C         5.49750409449146    2.46846320941456   -1.82244087212492
H         5.13886398373617    1.77821529369901   -1.07346166539193

