36
CSD_code = POYHEQ | q = 0 | S = 0 | Stoichiometry = C8H16B10CoN | MND = 11
Co        5.71316941605047   10.01607806478695   11.18063149107240
B         7.85770106270565    9.93228472406943   10.83342855835991
B         7.06280210218751    8.35040558689165   11.13641816490996
B         5.59278713619523    8.05239678366601   10.22232539248214
B         5.02975692063961    9.30636887000005    9.02767467424760
B         6.51516307401619    9.69238893176193    8.02119927724975
B         8.11945254573860   10.03473771327042    9.02085676976363
B         8.43065717909578    8.54273794118422    9.99122086748894
B         7.13994896880795    7.38724367312283    9.65516644336946
B         5.98653540444803    8.00625002223166    8.47433295540088
B         7.70882388015070    8.47148835007073    8.34921125881603
C         5.72365521697611   10.71329995087045    9.29665440202191
C         4.97758833120405   11.85371707281294    8.93271406567945
C         7.01405157011233   10.97671251710337    9.92421041772140
N         4.38528632294220   12.79076076192275    8.62695442930987
C         5.76959774051697   10.38330239769325   13.23114700702861
C         4.80988025312901    9.39150442381102   12.89936714574808
C         3.82399235002043   10.00369557127115   12.08758823997170
C         4.16187723063811   11.36934676726272   11.94758715575948
C         5.35301194470410   11.60406185241478   12.65225611767505
H         7.24517121417062   12.03502774103154   10.05359464216148
H         8.55820877962432   10.49560726675658   11.59749164499799
H         7.22893307412340    7.86819220879983   12.19837872569145
H         4.73718505069237    7.38344045325909   10.67823491510343
H         3.91531912082296    9.42103546765085    8.65944388045398
H         6.39552770984563   10.23523542704815    6.98633895276049
H         8.98272152690027   10.70176726532118    8.57813501390296
H         9.51391738341316    8.15462771864480   10.23267933657604
H         7.34291494755761    6.23066694355853    9.71367384634845
H         5.46004426258533    7.25777299209714    7.73555495950821
H         8.35193426893311    8.08790086732024    7.44093594771224
H         6.59111817662589   10.26051754999426   13.91678716585112
H         4.76382099618752    8.39739103790485   13.30952962360431
H         2.91122967363488    9.54473525475630   11.74637964760878
H         3.57338597143912   12.11371596063025   11.43685251543702
H         5.82992919316508   12.56118386900828   12.78354434820510

