85
CSD_code = POYJOD | q = 0 | S = 0 | Stoichiometry = C38H36N6NiO4 | MND = 4
Ni        9.29337287277771    2.43934594095094    3.26118069729194
O         7.25735683672600   -1.12045684207933    3.30798095238523
O         8.28636958894484    3.01429126036329    5.48602348340416
O         6.95776616531285    5.78141920150915    2.64688199049946
O         8.44928596960926    1.92726290710089    0.83011836475937
N        11.45549266292580    1.23228783979272    4.96169397926771
N        10.47984656134137   -0.08106300293347    3.57519553285741
N         7.98128333752935    1.03349052580523    3.73145496992540
N        11.70931217772850    3.55425137196378    1.83627988866912
N        10.33936680357278    5.00382655452425    2.63203696390987
N         7.90673106005732    3.68681726727288    2.66570445686451
C        10.53311645469357    1.20269462157204    3.97406770292791
C        11.33184177115498   -0.85343978786690    4.30811140595040
H        11.42403531970783   -1.90983631976011    4.16146755879281
C        11.95506518155938   -0.02342809194890    5.18010505808463
H        12.67965712243198   -0.23207236995273    5.94037358052172
C        11.84579126930352    2.41400187950439    5.68842292950892
H        12.12308556284112    2.11996964194876    6.70657829194124
H        10.97277512990446    3.06680279520091    5.72969434232629
C        12.99325402999542    3.15041704474668    5.03771665854247
C        14.16689912407483    2.48756656654245    4.69958231403575
H        14.26542634968414    1.43025824152403    4.89775642365431
C        15.21187202264352    3.17008970790144    4.10017303935517
H        16.11806683777017    2.64265420336612    3.84096637153270
C        15.09552953958568    4.52403095881373    3.83354145904344
H        15.91018616583770    5.05577710054555    3.36539130551528
C        13.93303632693599    5.19329997189614    4.17600033600665
H        13.83809412634287    6.24989676649645    3.97594136562435
C        12.88999461092902    4.50959369621102    4.77567538877816
H        11.98798973550644    5.03820121395226    5.04539798245083
C         9.47692598123789   -0.52978705090511    2.65913218940673
H         9.55351469956371   -1.60629336440373    2.50206384716383
H         9.56967452324506    0.00231911316969    1.71021803708192
C         8.07164809154203   -0.20783311424573    3.26806204166711
C         6.85288076619697    1.43951440476531    4.44311422090738
C         5.58719493664901    0.88468894253700    4.27549262260523
H         5.45396924311424    0.09841907986837    3.55303823005271
C         4.51040199982942    1.33184082073360    5.01810381320964
H         3.53894837581033    0.88510638550456    4.86866456749092
C         4.67529137050201    2.34918070592260    5.93477913660010
H         3.83967244656280    2.70860326679398    6.51689491924031
C         5.92397970010751    2.92873979512561    6.10995630646206
H         6.01933951110081    3.73154049728866    6.82393357245313
C         7.00822398578512    2.48511794440953    5.37564958255344
C         8.44468515278380    4.02268722486662    6.45282068653797
H         7.82496441252047    4.89907619441447    6.23106771084296
H         9.49390139941422    4.31978285417592    6.44834505457833
H         8.19459545859945    3.65096935529029    7.45353813818481
C        10.59004738692102    3.68215739730285    2.59558314546678
C        12.12449547524612    4.78361802269508    1.40263855757415
H        12.98327777569321    4.92080910144948    0.78204861503979
C        11.25505415093715    5.69476133820894    1.89776563470064
H        11.21933038756845    6.75877494702631    1.78388313329438
C        12.49342418333900    2.34684291668540    1.66141644999015
H        11.92615374991065    1.53520570549094    2.11917455441186
H        13.43379188943625    2.47745352088171    2.21151311795155
C        12.81003113369919    1.98931823976118    0.23079316776868
C        13.79041770431702    2.66723538850587   -0.48415285874642
H        14.35849601848880    3.45491453626627   -0.01055246267444
C        14.07267156114601    2.32248110676721   -1.79409288108747
H        14.83341729640583    2.86208661314782   -2.33826871003431
C        13.39150243413140    1.28186679164954   -2.40212263413848
H        13.61136134329792    1.01430758155620   -3.42446110123699
C        12.44430260665978    0.57233514181669   -1.68491772857312
H        11.92706587713787   -0.25739056064228   -2.14281563625788
C        12.16107365352627    0.92180814154359   -0.37578838240908
H        11.44264916654548    0.34762801173771    0.18970497369756
C         9.23578199509315    5.59073391624968    3.33178884778698
H         9.21437737292659    6.66704320858999    3.15271992272824
H         9.33362100657326    5.40524829538877    4.40317512089651
C         7.87727734597733    4.99780565924703    2.84823661123203
C         6.80646942605228    3.08124331205054    2.04795800538691
C         5.47912444008578    3.36586394844484    2.33844830948430
H         5.24958711005163    4.10148475433841    3.09118469424516
C         4.46491679496607    2.71132693980798    1.66131023034341
H         3.43593702596339    2.93973022441043    1.89547126725836
C         4.76208087911271    1.76419955347313    0.70114936429237
H         3.97021896227885    1.24526762912890    0.18149108664846
C         6.08332155587847    1.46882302145591    0.39475795995271
H         6.30320367986593    0.72192819245492   -0.35338113111495
C         7.09817719892738    2.12847077793930    1.05871134239735
C         8.78894620075313    1.50167790701086   -0.46677101974821
H         8.67663300055045    0.41623059941081   -0.58539352051145
H         9.83075518235308    1.77765736402315   -0.63195424460812
H         8.16819425620029    2.00162683444791   -1.21664127287646

