44
CSD_code = POYMAS | q = 0 | S = 0 | Stoichiometry = C18H19CoN2O4 | MND = 6
Co       -1.27354744911900    5.00737115591686    6.53701468160243
N        -0.74403958379525    6.11614629615456    5.15052119798265
N        -1.80160524864905    3.80368467202761    7.83729054477779
O        -0.20613060381443    5.79456791220427    7.79603173992236
O        -2.44381905486841    4.02851837430706    5.00041356787081
H        -2.31506862315167    3.07439685657767    5.06204542472555
O        -2.71033591147620    6.19428181827875    6.84972484975119
O         0.04978505070464    3.76214272995822    6.07315429877272
C         0.74868017339176    6.62512751234232    7.56575715109252
C         1.58288077084367    6.98664128604366    8.65580291243992
H         1.36861051072501    6.53373839301714    9.61180692947344
C         2.61284083278191    7.87595860548776    8.50996724482544
H         3.22661158869424    8.12688503255601    9.36333975177219
C         2.88330962640305    8.46334319450252    7.26996454607721
H         3.70043365938468    9.16067460944863    7.16766822522183
C         2.09731084273908    8.14311053518384    6.19483610283467
H         2.29018476417320    8.59134210864322    5.22966483301753
C         1.02910575410044    7.23546284721374    6.30737054776077
C         0.22913187545383    6.95382118593349    5.16802632096874
H         0.46521990421264    7.51059407407180    4.25743572157212
C        -1.55326688315510    5.96503997408462    3.96576937174153
H        -2.49934687328958    6.49317461269820    4.13313456800549
H        -1.05711140007860    6.37101471205923    3.07591527278579
C        -1.85223411896289    4.48051075364595    3.78536556140114
H        -0.91374262364013    3.94731266893885    3.60171490598457
H        -2.55236650584839    4.31620705949111    2.95596846166230
C        -3.71859117903886    5.98493982869792    7.61427827177104
C        -4.77134871814514    6.93895964499575    7.62311624354194
H        -4.65966855281983    7.79956279878434    6.98045697823584
C        -5.87699584170910    6.78831973798920    8.41361175486983
H        -6.65558448025503    7.53796838889266    8.39490111733106
C        -6.01312768309885    5.67562745901928    9.25124404718315
H        -6.88962103649417    5.56887769625622    9.87185685143106
C        -5.02049005249734    4.73306121274901    9.27448653227951
H        -5.10858140667392    3.86927285337454    9.92010068122078
C        -3.87018182039650    4.85085489667747    8.47284866180154
C        -2.86524081228444    3.85104788541712    8.56063275057675
H        -3.02038662534979    3.06972671112137    9.30959324934607
C        -0.77601461292894    2.81937395311048    8.10909764452256
H        -0.07570225118897    3.26279003240503    8.82478363493662
H        -1.19573412059332    1.89786926158687    8.53136099410835
C        -0.03993225140348    2.58490539779201    6.78068605001080
H        -0.59028700617122    1.81014072161076    6.19974176805732
H         0.97059797728827    2.19103253873160    6.97609803473209

