74
CSD_code = POYPIC | q = 0 | S = 0 | Stoichiometry = C28H38ClMnN4O2 | MND = 5
Mn        0.74193324221271    8.55639149832283    4.66363755854893
Cl        1.47284413962457    9.94128230529273    6.20834014685728
O         2.38747641876126    8.06632827827713    4.17903500871179
O         0.18302314307797    9.35066688779712    3.21788317924699
N         0.60580902492075    7.12767574367140    5.89273637766625
N        -1.23230049833402    8.81554753625172    5.29574329678411
N         5.62043350412732    5.13641957695442    2.33139935078226
N        -1.20856822757167   12.75324777260545    0.19565911607619
C        -0.31588807761597    7.37754146129208    6.99336695981081
C        -1.61850673796287    7.91630692505094    6.37582638857212
C        -2.48270116330785    8.50976892564834    7.49101004617825
C        -2.79561939034313    7.42088786828002    8.51589181962643
C        -1.52070039933257    6.80425939511554    9.08161610026930
C        -0.63060635971996    6.24724804540416    7.97105314431422
C         2.86793531832723    6.87066108953246    4.10570780911953
C         2.36967432038228    5.81058008653563    4.93404365170938
C         3.02563775390578    4.56722505722890    4.86515430702963
C         4.07287125484847    4.34023721483343    4.02155895232030
C         4.56744632496655    5.36718167614550    3.17513432075873
C         3.94988469901280    6.60924106199393    3.24839668713199
C        -0.69703067746018   10.24887154637743    2.86672053324457
C        -1.87979407056847   10.42324296124235    3.64009291729084
C        -2.81024655850901   11.37100636167033    3.19924380166810
C        -2.59120437970742   12.13952718585844    2.08687538909707
C        -1.41499201269990   11.99414752448527    1.31530492797963
C        -0.49738538674306   11.02174087027505    1.72465266438860
C         1.31050403167036    6.02712460659410    5.84097890749652
C         6.16269670127224    3.81556388088357    2.11125839259120
C         7.26892781122551    3.46035320640901    3.10795320537609
C         6.26878790689783    6.21097730484965    1.61458609704380
C         5.61434032616527    6.49055490773894    0.25994927554389
C        -2.10882493260662    9.61752836300770    4.79025372335656
C        -1.97152677647003   13.96244565714632   -0.03455788081062
C        -1.67587116178598   15.06819307085334    0.98047647270090
C        -0.06635260344063   12.52718165961137   -0.66156709102637
C         1.20756568074941   13.23798564810189   -0.19987002103669
H         0.14123569062559    8.20759018201520    7.55862475507895
H        -2.15916789782506    7.07178011712458    5.91667347399596
H        -1.93697907379998    9.33163795117721    7.95668255863543
H        -3.42154358249152    8.90034626471953    7.09651811783445
H        -3.38896439991171    7.84518813372373    9.32765028894273
H        -3.39430443885472    6.64080953595728    8.03844050676782
H        -0.96496115477684    7.56659213471803    9.63013564630433
H        -1.77740064814001    6.00567762303449    9.78044947667688
H         0.28868061280123    5.86396686915856    8.41649520622578
H        -1.14111882427011    5.42897901585095    7.45636467884318
H         2.67434647551923    3.76744356008615    5.50327549150850
H         4.53214703485519    3.36609083674400    4.02444384473409
H         4.26635478372431    7.43975210683861    2.63915568675864
H        -3.72099814922720   11.50535611342029    3.76632069307029
H        -3.34632666054241   12.85226616954021    1.80260063495864
H         0.42699853956581   10.85131588701561    1.19769461750619
H         1.10564554179642    5.22152871585087    6.54186010368242
H        -3.11061087973972    9.67908261151520    5.21811187722499
H         7.31482740076337    5.93154334568951    1.45892051643094
H         6.26117630997404    7.11414053303606    2.22878490609257
H         6.13604828979689    7.29742527997978   -0.24824462795477
H         5.64924225312780    5.60369784570947   -0.36911555761436
H         4.57359509563197    6.77308728029916    0.39187568320405
H         6.56983143876724    3.78321723496684    1.09624189141374
H         5.36092896777942    3.07507376409928    2.15975606902936
H         7.65055103765054    2.46292062829337    2.90503649481154
H         8.09034754124029    4.16871365982734    3.03012824235782
H         6.89015229865827    3.49257853911462    4.12597182381123
H        -1.72886234507068   14.32175576729891   -1.03691581023900
H        -3.04155356994951   13.72990832623349   -0.02656652743655
H        -2.30115762653987   15.93368821018203    0.77582306820421
H        -0.63422867972514   15.37171822394365    0.92507368902547
H        -1.87447242313205   14.72277319492441    1.99136325293555
H        -0.32859819967485   12.87330134971783   -1.66635468014617
H         0.11081173314472   11.45147719471860   -0.72928566643068
H         2.04434842431274   12.94104536180967   -0.82722604208435
H         1.09291099639762   14.31654334707904   -0.27028250098348
H         1.43439589956394   12.98174392325589    0.83147258040878

