55
CSD_code = POYQEB | q = 0 | S = 0 | Stoichiometry = C24H25N3O2Pd | MND = 4
Pd        6.11113528271611    7.37497174962557    9.92908072920989
O         5.73116602156260    7.81893283575695   11.89217227375735
O         7.81900858072445    8.39630206681942   11.46414793462927
N         5.74724424946320    9.16771284387889    9.25374609248469
N         6.44687224542134    6.98853480037014    8.05366191707337
N         6.43187622584928    5.54749898225072   10.47205458344435
H         6.37396916499274    5.33164452887949   11.46784278402958
C         5.49856832937459   10.22260198421054   10.13613754438079
C         4.33915627299496   10.18871839925657   10.90982556536668
H         3.63891223351384    9.37353082277880   10.77115732560091
C         4.11123654318013   11.17545920713853   11.84746419976263
H         3.20934482219059   11.14142740026344   12.44147602828082
C         5.02936852080236   12.19999508585679   12.05420719798735
C         6.18901751794738   12.21280543703633   11.28719977668738
H         6.92867750358501   12.98420048222049   11.43932108383966
C         6.42404734450817   11.24614926057664   10.32907349457514
H         7.34398189078157   11.24409924545266    9.76271322442278
C         5.87542429813577    9.28878623202115    7.97193454455543
C         5.68403007545090   10.57910320259289    7.23126399084487
H         5.39558128622318   11.37060686414015    7.91876112167413
H         4.90476852985780   10.46900308763733    6.47853394935623
H         6.60538405598026   10.86853244714589    6.72764169256577
C         6.18750758770550    8.05849918535451    7.26174346455116
C         6.20845250290845    7.96815523807328    5.87638594973337
H         6.02626641492379    8.83395030959759    5.26255451436622
C         6.42352441616720    6.72221062013052    5.30449808179244
H         6.37114297100807    6.59743476748909    4.23361967464794
C         6.70085782019613    5.64728286917660    6.11774220252413
H         6.82853250465745    4.67637145268857    5.67089114058101
C         6.78793371472800    5.79118781925212    7.51821888277337
C         7.23798955685576    4.68400895343681    8.33829789856328
C         7.04353859825977    4.60514396863712    9.75878503907559
C         7.49754828074077    3.43164990835114   10.42323179991158
H         7.32254550456287    3.36721020286425   11.48905624775704
C         8.14901203718686    2.42480837710988    9.77414118663976
H         8.48760560010060    1.55504841933741   10.31810321838274
C         8.39773753884043    2.53360382589232    8.40326484569165
H         8.94957283788180    1.76285542869289    7.88782339068153
C         7.94728428801277    3.63381740533626    7.72209931544593
H         8.19139990371891    3.70601781232361    6.67390025795698
C         4.77911861447123   13.24870827873760   13.10970005279699
H         3.77982951158223   13.08064835315997   13.52626840503311
C         5.79660975384832   13.11461243783666   14.24544120444676
H         6.80808943584624   13.26729491916525   13.87696241125144
H         5.73899412725224   12.12360594853266   14.69047460023020
H         5.59655060000841   13.85226839241490   15.01943466609522
C         4.81392794031680   14.65739378038061   12.51366167137286
H         4.54360699119389   15.39047334489791   13.27034796131547
H         4.11042539070763   14.73763513531934   11.68772376098407
H         5.80705530547275   14.89983928852005   12.14460160849264
C         6.84295105890560    8.33269843162415   12.22424412904333
C         6.93064565420815    8.91412396929705   13.62805429774171
H         7.94156433148731    8.80844247679758   14.00959245642504
H         6.21703630461647    8.42263719705350   14.28256200281542
H         6.68657190637774    9.97324451662304   13.56915660634957

