64
CSD_code = POYQOL | q = 0 | S = 0 | Stoichiometry = C27H31N3O2Pd | MND = 4
Pd        6.61110514195763   17.56860189185133    4.26944209905896
O         7.78207590034992   17.95984128420432    2.59917944819850
O         6.33061972279186   18.10845939041180    0.91232274588178
N         8.19885619712374   17.47827905479550    5.41633136168883
N         5.68730136603998   17.17888295140565    5.95457541800678
N         4.95699454094766   17.66836236742949    3.28946240255992
H         5.04968767401618   17.85797685148493    2.28454066694601
C         9.46715908802798   17.67751654653232    4.85835360894059
C        10.02533200486762   16.64617832502442    4.08963348281452
C        11.25987851132474   16.86640703353303    3.49830139370439
H        11.72498887930582   16.08760783797073    2.91592997645673
C        11.89806721127195   18.08560019913267    3.62873344159657
H        12.85630886156076   18.24380487190227    3.15640104455925
C        11.30314365357688   19.11608260638776    4.33434708824822
H        11.80072734961661   20.07067242741678    4.38560392039164
C        10.08160868364799   18.93562865769468    4.96410902987030
C         7.95157155240036   17.28886685467211    6.67051738402272
C         9.02043523629888   17.17288110758721    7.71766193533442
H        10.00216322401176   17.20487863376911    7.24923293304559
H         8.91651445012511   16.23598267825609    8.26359173863320
H         8.95053100029738   17.98907752999444    8.43609290046538
C         6.54217467454651   17.17615366703507    7.01382154490256
C         6.09313220444857   17.10011846637616    8.32216228563268
H         6.78877627879658   17.08572840861543    9.14422823017940
C         4.72182637962552   17.09330149003421    8.54767198988583
H         4.33537130864332   17.10283632002056    9.55538524388110
C         3.86539624225771   17.08409928084477    7.47318400725622
H         2.80502350034020   17.11916979415377    7.65414388344684
C         4.34569234975504   17.06726870844133    6.14541015730391
C         3.42269368369382   16.94189208924092    5.04147924269438
C         3.75818092445663   17.26103255679449    3.67879831865819
C         2.72546213719986   17.16518542115368    2.70019475949560
H         2.98627812101465   17.43854978880996    1.68745032563648
C         1.47119022806524   16.73091833239066    3.00292371834922
H         0.71622536659720   16.66223333622356    2.23332949812922
C         1.16636700886263   16.34900211013583    4.31564950969519
H         0.18798605852452   15.96079310722686    4.55397279059957
C         2.11961616955204   16.45983490988996    5.29088501500659
H         1.86276144561928   16.11900818081694    6.28188166080714
C         9.35764303938324   20.06458477713249    5.66932405130284
H         8.87039586635461   19.66510818841411    6.56592268691078
C        10.28493323948506   21.19286915941668    6.12038121604506
H        11.12572937540270   20.80097096048110    6.68882240449934
H         9.73511580788977   21.88478845302075    6.75503140037681
H        10.66405207422618   21.75244526539147    5.26937460466078
C         8.26406219683380   20.62376431821937    4.74665346527513
H         8.70537307272099   20.97004035347469    3.81477988643954
H         7.76112920891664   21.46015154777423    5.22861998088567
H         7.50664863049465   19.85606037047531    4.50175226895215
C         9.27277820817134   15.34264939322733    3.92810669195554
H         8.18335506096135   15.56540630177450    3.98472898951709
C         9.63236190786397   14.37843319432589    5.06310478693094
H        10.70030955580313   14.16708478404264    5.05035607528294
H         9.09358164939792   13.44087285738467    4.94550805303599
H         9.37707341493466   14.80152957641939    6.03198478856927
C         9.52102669479114   14.68680846111308    2.57092123150955
H         9.35784746827337   15.40879994543071    1.77523250362053
H         8.82796199172393   13.85993640053807    2.43188922781136
H        10.53208382670786   14.29269546485369    2.49561786967240
C         7.46561482842552   18.11696519548442    1.37519082209706
C         8.66936759430173   18.33139017401997    0.45195812557012
H         8.69303230693427   17.53645269820348   -0.28961934802181
H         9.58829625336748   18.33233762841173    1.03200478327429
H         8.55220239506959   19.27833946130816   -0.06858276815409

