59
CSD_code = POYRUS | q = 0 | S = 0 | Stoichiometry = C28H27N3Pd | MND = 4
Pd        1.53650536193001    5.32591052987280    2.44987307973044
N         3.06419267352077    4.48254197281155    1.51132787895737
N         0.48839653760588    4.18153085024015    1.07809224169398
N        -0.11221912113055    6.04320456106398    3.20855173560146
H        -0.08026178646618    6.69330383942886    3.99345849188410
C         4.37244121925221    4.67623729353553    1.96555270216805
C         4.68735078584247    4.28315557559230    3.26671802810897
H         3.93592287709920    3.76419272096628    3.85137365010925
C         5.92686841028959    4.57350940219929    3.79424821434313
H         6.15453381628509    4.27141592191728    4.80603989538871
C         6.87691918666120    5.27403278281252    3.05797328113222
C         6.55932237741392    5.64811102208972    1.75879022788823
H         7.27450128572192    6.19630301373708    1.16425967151650
C         5.32969000855552    5.34422909331261    1.20665576230590
H         5.08503159789695    5.67214024044789    0.20612673590715
C         2.75043316888024    3.79515894413183    0.45771958356825
C         3.75042447094676    3.04462017359785   -0.37196856369533
H         4.70256659058999    2.98008429388185    0.15071041715177
H         3.91401090828710    3.54869745701527   -1.32469317820161
H         3.38954531948229    2.03854464649923   -0.57816918403391
C         1.32823525418670    3.72927089535309    0.11971277888202
C         0.85257465161366    3.26061188219320   -1.09755809550564
H         1.52515039350073    2.89334442368078   -1.85534696943903
C        -0.51408173725009    3.33570688022311   -1.33903644853021
H        -0.91051948092951    3.03161738787180   -2.29666273060580
C        -1.35574781709368    3.81838256674259   -0.36136495949058
H        -2.40746729659041    3.92113304945393   -0.57149382858899
C        -0.84275041889039    4.21741308272323    0.88964812053534
C        -1.72632850939205    4.65683422116309    1.95754998009642
C        -1.33720097065910    5.53157964102930    3.02862985265030
C        -2.35951098565690    5.92464280907868    3.93687933920315
H        -2.08110659805268    6.61051812246953    4.72716580693822
C        -3.64168116752575    5.46189650865399    3.86195982978555
H        -4.37752692484290    5.78295095181253    4.58526668629531
C        -3.99423021131502    4.55760457202918    2.85920779274023
H        -4.99412731796859    4.15440764780504    2.81239021615926
C        -3.04973517550006    4.18356843924454    1.93783594804789
H        -3.33053006251477    3.45882616719042    1.18797378719818
C         8.19369564369604    5.65718302361046    3.68471036501703
H         8.24944922636103    5.18516905522133    4.67177017969959
C         9.38302552165687    5.16832200216887    2.85623476347755
H         9.32234558851900    4.09286389387307    2.70271728106483
H        10.31453634009777    5.39174694093787    3.37157473502337
H         9.40799178955440    5.65386642587019    1.88400176802677
C         8.24856455468553    7.17458909364932    3.87950949968664
H         8.22671790772900    7.68515171440876    2.91975038206768
H         9.16080644368880    7.45696613318101    4.40057725570212
H         7.39287025361612    7.50648488374937    4.46296570414094
C         2.64551030864607    6.48882410245045    3.65060517658505
C         2.73359152991139    6.25116243329427    5.02395891520070
H         2.10558984857604    5.48657601846957    5.47932339566729
C         3.61284130429774    6.96542867094621    5.82300791954506
H         3.67056684632026    6.75818116217446    6.88330050455893
C         4.41861199542124    7.94353063340056    5.26746591636023
H         5.10601817598371    8.49970672631414    5.89013017797665
C         4.33379763600591    8.21082206448481    3.91180205889459
H         4.95661831842663    8.97936516304986    3.47372661180414
C         3.45745571078771    7.49179605579376    3.11583654159476
H         3.40990374225798    7.71253021895750    2.04973306963679

