92
CSD_code = POYZAF | q = 0 | S = 0 | Stoichiometry = C37H35HgN7O10S2 | MND = 8
Hg       -5.23281481576943   -7.65974798939160    7.97329788331916
S        -4.51783234754808   -5.48342544174235    9.31464015456930
S        -4.43170744778385   -6.54476745879549    5.64965410538428
O        -7.23816027555182   -7.54852681348260    9.91553904287684
O        -4.14013201334500   -9.77414606053703    6.72124567321707
O         4.59576739500372    0.49648175075536   15.40518945662410
O         5.72454255922185    1.39579208024265   13.80659255506857
O        -7.06243948079003   -6.43350791959068    7.37338651491965
O        -8.62459307537523   -6.99552337968604    6.04540641081179
O        -6.86883086442174   -8.19394266769439    6.18739729640274
O        -2.75915878593472   -7.71339104070346    8.23243260708771
O        -4.01026973008201   -8.50658796209224    9.76092687208076
O        -1.89762727356502   -8.74891920842348    9.88218285108021
N        -6.34465397318822   -9.73067261696586    8.48389364755458
N        -3.59142422665124   -3.59591423296664    7.17689325039873
N        -0.34394360280781   -0.69727724664688   10.61470022284075
N         0.90822368658264   -0.80919579089333   10.58412903362452
N         4.75253256705538    0.79314849287045   14.23197391179155
N        -7.53819909250752   -7.20920065508049    6.51308291888879
N        -2.86067304812262   -8.32519502999877    9.30378584203667
C        -7.83823181284197  -12.06680357680141    8.45272020793353
H        -8.42484275888672  -12.97228144841440    8.42617230560200
C        -8.36618050498048  -10.89663576953915    8.96066562968722
H        -9.37179067196729  -10.86407100217491    9.34963600605923
C        -7.58497647711788   -9.74371029932158    8.95809057558665
C        -8.20569748102708   -8.47768218367400    9.48874757648938
H        -8.82793274788237   -8.04896389566259    8.68667101735162
H        -8.86458966805594   -8.73921809987683   10.32973396008982
C        -7.70592613169557   -6.37031480642571   10.43492049271691
C        -9.04977178923406   -6.01217928607512   10.46656509649064
H        -9.80729449703844   -6.65070708741692   10.04362877919714
C        -9.44692949412106   -4.81048306099303   11.02872626307830
H       -10.49516632302589   -4.55417940264390   11.03474255099068
C        -8.51586454824456   -3.95068509621131   11.57847763937906
H        -8.82514379076984   -3.01880262172427   12.02474561862822
C        -7.17803559426863   -4.29834754699173   11.54620043496172
H        -6.44007421340444   -3.63507965845607   11.97385537186023
C        -6.75430372786636   -5.49523047394735   10.98398180439284
C        -5.30267622466458   -5.81392868373738   10.95339302173505
H        -5.10937045818759   -6.87198869238780   11.12842774221737
H        -4.75085299225685   -5.20685650254813   11.67098885176844
C        -5.48419430976251   -4.04076443249217    8.73666247758459
H        -6.53367362766249   -4.32625320167773    8.69952437977523
H        -5.32976465244607   -3.26176257625588    9.48102048703433
C        -5.02938495732248   -3.61823853289371    7.34203559622216
H        -5.42538249052160   -4.34320982062438    6.62823813894231
H        -5.47721346333555   -2.64013902105825    7.11193996811694
C        -3.06024540098938   -4.14443299555885    5.95014903377077
H        -2.10091286221615   -3.66119509485264    5.74776821247533
H        -3.74270055581003   -3.88379078856980    5.13260590446723
C        -2.84939693235278   -5.65985013611564    5.94264440179785
H        -2.43237391380016   -6.01913669038165    6.88086071512229
H        -2.19538590386530   -5.93479041838800    5.11779943068983
C        -3.91462446645818   -7.98175830899802    4.62503631991215
H        -4.81131016102174   -8.60234526314827    4.61679133351168
H        -3.72095153704323   -7.58207093551923    3.62944965536357
C        -2.73441883289386   -8.71628874322394    5.15450710637538
C        -1.47781552575394   -8.51484821146712    4.60113280698851
H        -1.37158088277079   -7.82422718684685    3.77596503066076
C        -0.37007902446215   -9.19823054488442    5.06932007112034
H         0.59929863222047   -9.02568197378402    4.62850645814038
C        -0.51836699963790  -10.10158514906043    6.10393753543427
H         0.33611535164510  -10.63886722456252    6.48504124049971
C        -1.76305377752029  -10.32676521612679    6.66698856948780
H        -1.84343986158692  -11.02934102321738    7.48065020662494
C        -2.87366141478155   -9.62953447419775    6.21081983999245
C        -4.37389480708919  -10.85747281534152    7.59606090812384
H        -3.76267900181078  -10.77020791227678    8.50719912821605
H        -4.12718950953393  -11.80178485290891    7.09287255969644
C        -5.81731129100133  -10.86622903972240    8.02482773295682
C        -6.53479441058196  -12.05328578617474    7.98611021848494
H        -6.07912648821180  -12.94878505444967    7.59445783148656
C        -2.78262208098641   -2.89698111938404    8.02990500365438
C        -3.27361904540022   -1.83016330070951    8.80521542072086
H        -4.30223170005031   -1.52220588287464    8.70859085051431
C        -2.44801749561044   -1.12610337923665    9.64347698073242
H        -2.82410060119811   -0.29277355746517   10.21680018711620
C        -1.08691219443738   -1.44754166497258    9.74813280256355
C        -0.59155869810848   -2.52071540802685    8.98522762994783
H         0.44991878502323   -2.78757597148472    9.08694668198044
C        -1.41695176311222   -3.22360890226893    8.14986306422201
H        -1.02080555050709   -4.06499711168320    7.60379536692439
C         1.76086011121229   -0.30708275549035   11.49648345205909
C         1.61468709908384   -0.59203338042679   12.87123096721856
H         0.72046232673706   -1.10056382202393   13.19816594014490
C         2.59587999417646   -0.23872449945079   13.76039473727540
H         2.49423471037761   -0.43875814664147   14.81643251526661
C         3.74328238155601    0.41446409175673   13.30643069937848
C         3.90343203047125    0.70390842056981   11.94782014929279
H         4.80082208944761    1.21077283275732   11.62747744491508
C         2.93403974020657    0.33707214230375   11.05300845836193
H         3.03785869339294    0.55785322494251   10.00213715094697

