25
CSD_code = POZHUH | q = -1 | S = 0 | Stoichiometry = C6H18Ta(1-) | MND = 6
Ta        8.88298537580719    7.29770700351594    2.38449218607204
C        10.91113422089451    7.66894882368771    1.26310459167886
H        10.90421317634429    7.29418529609110    0.23866175071609
H        11.74766723790629    7.18442423080019    1.77420357032020
H        11.14226762141093    8.73658079775921    1.20984909206436
C        10.19222168346960    8.25296749067419    4.08222685221268
H         9.63833307002207    8.41190502761659    5.00832895443741
H        10.59417202865464    9.22413535821123    3.78084892401391
H        11.04557392637276    7.61423241274470    4.32708973022547
C         8.18277279629637    5.82955452840853    4.07655090892676
H         7.22515961662149    5.36621372787926    3.82310376725242
H         8.05170146231663    6.32253467207518    5.04068651338645
H         8.90125095141574    5.01944494232475    4.22831695206637
C         7.91039119912872    8.10732267249484    0.40800464509424
H         8.41394462339099    7.74904597910734   -0.49077215699409
H         7.93112487964597    9.19990229798869    0.37064369289198
H         6.86301371601169    7.80320527441419    0.32881388669637
C         8.90528482916025    5.23787681518028    1.25968511161846
H         7.93087311206019    4.74399742612268    1.30712176678491
H         9.63403283910755    4.55383543906837    1.70375996371811
H         9.16214709036934    5.33316505815051    0.20375125392535
C         7.19711456621688    8.69643557181187    3.22757645395658
H         7.37750588222796    9.73896933655606    2.95071832428366
H         7.12242785283386    8.66516979545780    4.31541381253111
H         6.21428624231023    8.42504002185345    2.83291945211554

