29
CSD_code = POZMEW | q = 0 | S = 0 | Stoichiometry = C13H10MoOS4 | MND = 12
Mo        6.50489635883749    3.93602735455841    4.14548855288188
S         5.42842844393384    2.30220207586212    2.67918121580665
S         6.05518146584753    2.23456773973007    5.84317362299630
S         4.21128023449486   -0.43803961628358    3.00132042426257
S         4.78380128330005   -0.50016748373680    5.89599996057048
O         3.59570864700216   -2.44758144917822    4.58443879630235
C         5.27122241651024    0.93213041749815    5.01125523503645
C         5.01073399503491    0.96003785319825    3.69256415621208
C         4.08872497380992   -1.36388306761486    4.51028739004240
C         5.11270439536450    5.14486021268249    5.60560034588720
C         6.00398040425949    6.09591301856534    5.09583145079975
C         5.81243895029106    6.17774630566985    3.69418730012093
C         4.80303364529404    5.27207868080383    3.33112510817192
C         4.36607088987557    4.61316872828874    4.51717538291601
C         8.40718407529432    2.72033522138029    3.84072764747192
C         8.66368278445191    3.64122566633914    4.89875462852561
C         8.65937327508754    4.93342373471597    4.34709469588250
C         8.40558978698724    4.82582928570315    2.95689055097469
C         8.26388126293837    3.47003584981415    2.64144209771277
H         4.94061666768287    4.92709576497191    6.64945795192042
H         6.63701869419408    6.74283389303188    5.68544514324342
H         6.26961418845915    6.90808519022220    3.04152151248800
H         4.33553486860743    5.19181631465472    2.36120780805258
H         3.46135966920212    4.02008198568304    4.60909968156457
H         8.55301162599269    1.64586008029127    3.89405728340645
H         8.96249386502419    3.37594778538770    5.90173314116155
H         8.93997470509570    5.84074966558936    4.86338999774720
H         8.44057618118348    5.63629758767540    2.24361551671421
H         8.16118224594045    3.05342120449809    1.65003340112790

