29
CSD_code = POZMUM | q = 0 | S = 0 | Stoichiometry = C13H10S5W | MND = 12
W        -0.93294429971351    2.46435381246353   -1.71657619780765
S         0.28581767880164    3.32793504419047   -3.66456777569159
S         0.71235187552822    0.64556056299641   -1.87742907233872
S         2.55217130205208    2.34051433023889   -5.39363161110323
S         2.94132498343818   -0.07125946815792   -3.78023655896448
S         4.66610283475780    0.39384765986058   -6.15758594191243
C         1.49396717503461    2.13293574188421   -4.01538618185288
C         1.67358840428188    1.02271162196203   -3.27173241403357
C         3.45803243244716    0.86039552059248   -5.16857681706982
C        -2.41457526751431    0.74245392686812   -1.82250205756698
H        -2.31520811503786   -0.23399734081324   -1.36973321427721
C        -2.04706134863694    1.07761162591125   -3.16715351939067
H        -1.64520919942045    0.38595398242324   -3.90117065512935
C        -2.58919406106953    2.36189894147445   -3.46167169992224
H        -2.55011099817046    2.85268551061845   -4.42462179067006
C        -3.23462359652271    2.84047618349814   -2.31535151174632
H        -3.80670581908378    3.75503193632911   -2.25007838433887
C        -3.13852974426531    1.84175935760654   -1.30300347671159
H        -3.67504854362920    1.85536071149909   -0.36285827523936
C        -0.37962199205612    4.51999052282819   -0.87010147762813
H        -0.28827755173223    5.44297749266738   -1.42527238843660
C         0.68855392221726    3.60502246613424   -0.59370180055954
H         1.73094734807904    3.75508824870376   -0.85866894641575
C         0.21112061411545    2.65636267426607    0.36263203093411
H         0.81067282315353    1.89552330883659    0.84315164562923
C        -1.12891647469531    2.95389554527367    0.64066040887684
H        -1.74139090487172    2.46351840287213    1.38398826392170
C        -1.49669930955735    4.10162400936963   -0.11706469176661
H        -2.42883416793199    4.64246766760502   -0.01795588878880

