29
CSD_code = POZNAT | q = 0 | S = 0 | Stoichiometry = C13H10S3Se2W | MND = 12
W         8.37907497474522   13.01965338893743    3.12271956694412
Se        7.04993234875435   14.29401285167929    1.37784563442064
Se        8.85841612327862   11.37970859815610    1.25052358153174
S         6.34915532100347   13.69399082894187   -1.64835128670047
S         7.88952290503514   11.20716927939519   -1.75636038753527
S         6.42922782335917   12.13068815804493   -4.17920553463671
C         7.17709901740787   13.21182703858200   -0.18976572428151
C         7.88364117455760   12.07017143038893   -0.23949779422561
C         6.86397172959778   12.33223043782121   -2.62255931363416
C         6.46216025906807   13.14717620478224    4.31501232700457
H         5.77619604180915   13.98012402278278    4.40009188789483
C         7.48989144343342   12.80156369072185    5.22940318003824
H         7.73587433712768   13.34693847577180    6.13332726078772
C         7.95202590300929   11.48783517534483    4.91759878829052
H         8.65526299207832   10.90821280598494    5.50020733574977
C         7.19251505602897   11.00595211280612    3.84462458101870
H         7.24351285961590   10.00972479829658    3.42375294270720
C         6.29937840850592   12.02812310854365    3.43013144460481
H         5.48312547495227   11.89551794259174    2.72619330471832
C        10.66293385926739   13.07167999608588    3.22768034573417
H        11.35442334676840   12.26780619469902    3.01002220810822
C        10.22210888804334   13.47617504439311    4.50478558951975
H        10.49318647758658   13.00505793331519    5.44188767357528
C         9.54664309747776   14.72312119332212    4.37915357989568
H         9.18949528090572   15.33518572096546    5.19647449096588
C         9.56782530130685   15.09873404440517    3.03175844681216
H         9.22452905870923   16.04133065466240    2.62459887436757
C        10.22783028583988   14.07015515391415    2.29126632310174
H        10.57524021072564   14.16493371466508    1.26588067322075

