46
CSD_code = POZNIC | q = 1 | S = 0 | Stoichiometry = C15H26ClN2OPt(1+) | MND = 5
Pt        1.61696689088977    6.54182665173892    0.31417341036526
Cl        1.69999094887949    6.32099731238671   -1.94216847639850
O        -3.97857063118445    5.62422902690174   -3.14536606610713
N         1.68953126778006    6.98379085503782    2.46231723367560
N         2.34168839487112    8.50577478416657    0.09867000434943
C         2.65660717347195    8.09662232297592    2.51146087325081
H         2.63749380693478    8.57501658495492    3.50015410158863
H         3.65782352425461    7.68396250055593    2.36019980693819
C         2.35652651386312    9.13229852001619    1.43482745116092
H         3.10767493273497    9.93048183516861    1.47307147191438
H         1.38234436883087    9.58941553066299    1.62274508101182
C         0.37270319023375    7.43611038396202    2.92989342877220
H        -0.10890339567910    8.06994389355934    2.18517909522613
H         0.46337941442139    7.99416195156087    3.86775365758680
H        -0.27298861644119    6.58022344746922    3.11399527972182
C         2.17085401401875    5.91881738596215    3.34735367899297
H         3.13345249446238    5.54712751768693    2.99734414132581
H         1.46320231648414    5.09270351612382    3.37016217024228
H         2.29249098075000    6.29180000675685    4.36949285588255
C         3.71132309878979    8.40341875533605   -0.42558081150666
H         4.32849677734694    7.78055066633352    0.22314976631010
H         4.16776278486605    9.39532128238185   -0.50114503989603
H         3.68963685355198    7.95087026632874   -1.41606525731958
C         1.54035854619889    9.32950074496596   -0.81561268820151
H         1.57969327791340    8.91007822488967   -1.81892397929606
H         1.92537444239459   10.35318749966303   -0.84509685433098
H         0.49861157353860    9.34867479644908   -0.49232350348956
C         1.42733565622931    4.40167399998815    0.38691907290258
H         1.71117848448684    3.98844347729845   -0.57463555404743
H         1.97954235786435    4.00361927606354    1.23287070527955
C         0.13655145357342    4.89037100563710    0.57773719600600
H        -0.23178797750593    4.98559229875940    1.59930344115899
C        -0.89934725030874    5.03451476482144   -0.42966226038355
C        -2.02620054550615    5.82199320975115   -0.13668453983553
H        -2.10699149315132    6.29762121162537    0.83072322832529
C        -3.02352164721641    6.00458506841525   -1.05995481153259
H        -3.88450568974490    6.61590539239148   -0.84250216049693
C        -2.95270632593350    5.38627290142069   -2.31711612074258
C        -1.85215120506235    4.57329412126459   -2.60641373318590
H        -1.77821887410285    4.06585777733193   -3.55450982404353
C        -0.84683508031284    4.40799181915651   -1.68068918253286
H        -0.01700300705237    3.76452673013756   -1.92606489477880
C        -3.99537090974607    5.02697908642561   -4.42580393704971
H        -4.91528595809169    5.36940980814480   -4.89565164335003
H        -4.00908268483469    3.93587517501498   -4.35598855336709
H        -3.13982424776740    5.34786661236188   -5.02633726009625

