97
CSD_code = POZPIF | q = 0 | S = 0 | Stoichiometry = C52H36N8Ni | MND = 6
C        -3.66888957459806    2.19960999842676    5.25704206771741
H        -4.58530664208263    1.92147859285257    5.74710442947188
C        -3.54720989558485    3.13378134160867    4.20364115783037
H        -4.35218953679755    3.68796366863386    3.75950421295777
C        -2.21966621649451    3.17011315361727    3.87699560656650
H        -1.74238145970144    3.75665538363794    3.11553306206659
C        -1.56339026354124    2.25711967936505    4.75702371214771
C        -0.20701781511929    1.95708178897716    4.77845373563432
C         0.39560333839723    1.04097822162787    5.65050319690262
C         1.77516326901704    0.70655804014683    5.67962053451174
H         2.53000921672155    1.10587898979529    5.03011141804347
C         1.93962809435222   -0.20501230385362    6.69445028720578
H         2.84822840251831   -0.68178707279440    7.01001170695336
C         0.67001663943517   -0.39262033003939    7.26223947400211
H         0.43995283224216   -1.02541820923219    8.10178672120436
C         0.66503916746686    2.66492191000977    3.82050728166808
C         1.31323585852426    1.97976712766528    2.79792428406881
H         1.17542269590342    0.91202356189801    2.70488085772907
C         2.11608443854602    2.65540343132910    1.90007779406292
H         2.62146531854206    2.10884295287784    1.11683102194922
C         2.30692999205424    4.03086051915906    2.01279463062174
C         1.66379877483928    4.71276114035115    3.04372403218656
H         1.78722800896215    5.78221327825813    3.13486156217459
C         0.84619738038001    4.04044000015120    3.92958121071163
H         0.34671853213570    4.57608631681967    4.72325088449191
C         3.16642675235059    4.75020891061350    1.06400090008658
C         3.15598995769656    4.44894479207999   -0.29761618095886
H         2.49949940875724    3.68511744816034   -0.68606314705354
C         3.98221804522105    5.16395258930883   -1.14717811737495
H         3.99703440768741    4.96002942928566   -2.21036056681521
C         4.80943042503115    6.41226451518861    0.54972892770489
H         5.48776778329253    7.20338085447576    0.84323094346803
C         4.02362180058149    5.76540623239745    1.48776672070314
H         4.08772519910538    6.02988080629940    2.53230597411585
C        -2.02234075729795   -2.61648545021950    6.42924314337117
C        -2.01753346266153   -3.84694666107666    5.73613997269868
C        -2.02367676163087   -3.79689689972142    4.33248776248204
H        -2.01650910130412   -4.71678249602388    3.76507163298315
C        -2.03993046690200   -2.57320575654584    3.70943215983809
H        -2.04354911681518   -2.49525409837073    2.63342879396769
C        -2.06094003952997   -1.41212450346319    4.49080061727921
H        -2.09047169745624   -0.43644701280111    4.02414490335184
C        -2.01102198588324   -5.06729435222407    6.47070678885054
H        -2.00926830660974   -5.99499498220118    5.91689057928059
N        -2.50346018565289    1.67049626533663    5.58348512824673
N        -0.24784607716682    0.34346344723243    6.64759821118339
N         4.79461837690896    6.12534931410336   -0.74122598104700
N        -2.05532363934957   -1.43065786056571    5.80366769256349
Ni       -2.01111247627847    0.35982935723253    7.14756466461569
C        -2.00008592430911   -2.61639680525744    7.86616243928029
C        -2.00506469830399   -3.84677373335201    8.55942424196069
C        -1.99880293037395   -3.79655246981093    9.96306847899127
H        -2.00617565170244   -4.71636231437356   10.53060002675987
C        -1.98248233991104   -2.57278872203909   10.58597247003291
H        -1.97884366999626   -2.49471004564013   11.66197430740567
C        -1.96148393462283   -1.41180146296721    9.80445615077692
H        -1.93162819168915   -0.43606101403733   10.27098736614172
C        -2.01204208705402   -5.06721246702065    7.82500736700007
H        -2.01376494355309   -5.99484841812999    8.37893963979404
N        -1.96703060110242   -1.43049505890853    8.49158644673213
C        -0.35336370827570    2.19979415420039    9.03795754132624
H         0.56301904664058    1.92175479754575    8.54777663265519
C        -0.47502300349065    3.13399184436450   10.09136273328524
H         0.32995288383857    3.68823531861709   10.53545808501124
C        -1.80251790885155    3.17017884658269   10.41815841606321
H        -2.27978093622059    3.75664298526908   11.17969844125802
C        -2.45881716280801    2.25724464147900    9.53807175307688
C        -3.81514845892457    1.95718144260749    9.51671973529555
C        -4.41779175054769    1.04097173968603    8.64473581654892
C        -5.79733361735567    0.70648731576399    8.61569590958830
H        -6.55217134336035    1.10582967708413    9.26519489146947
C        -5.96182470682696   -0.20503028531262    7.60080783275005
H        -6.87043593444865   -0.68172670881177    7.28518679050229
C        -4.69222870685698   -0.39265996793671    7.03302746097420
H        -4.46219879148081   -1.02534396522693    6.19338320192090
C        -4.68714951355592    2.66492792204581   10.47479164124120
C        -5.33524909043549    1.97971641288456   11.49740892380568
H        -5.19753474881774    0.91194655209762   11.59031186562985
C        -6.13818708216633    2.65527730712311   12.39523763294528
H        -6.64353314777371    2.10867283833564   13.17847508170062
C        -6.32916384977645    4.03071324953409   12.28250509806155
C        -5.68611151958093    4.71266551177445   11.25156026214943
H        -5.80949827888566    5.78212961627311   11.16052925009404
C        -4.86844404631556    4.04042208108517   10.36571083645843
H        -4.36900452639096    4.57611008519270    9.57205151587815
C        -7.18863187921457    4.75001185455953   13.23136177887208
C        -7.17798415841574    4.44885817441574   14.59300727389366
H        -6.52159479250963    3.68492173878644   14.98138289414263
C        -8.00410179457168    5.16391820580546   15.44263735030718
H        -8.01920733528199    4.95965974910184   16.50573400606214
C        -8.83195613225833    6.41175138441251   13.74566218705428
H        -9.50998930851748    7.20313568142743   13.45226076492687
C        -8.04603396978403    5.76504802974346   12.80761223854228
H        -8.11003594405649    6.02965206008259   11.76310841363593
N        -1.51877067763815    1.67063970135920    8.71155540031557
N        -3.77434061136483    0.34338922040942    7.64770270421256
N        -8.81682715931198    6.12504822937478   15.03667229706774

