77
CSD_code = POZPAX | q = 0 | S = 0 | Stoichiometry = C40H28N8Ni | MND = 6
C        10.16942702953871    9.50119139791872    7.61695252690212
H        10.85315416926827   10.03682268563933    6.98179296184777
C         8.95589577158600    8.92188389980746    7.21495984284941
H         8.55446259047196    8.92620516769868    6.21942449626747
C         8.40164873435770    8.36885309591982    8.34401942020434
H         7.46736588654078    7.84764336230134    8.42585027923157
C         9.31024216837085    8.61521173139120    9.40644050649427
C         9.15097647931911    8.20358299839232   10.73535491583213
C        10.09907280033729    8.36560643356888   11.73649075751772
C        10.00438543899859    7.90699255800489   13.08502375676904
H         9.15507998312479    7.41571467398409   13.52003909474720
C        11.19561428678572    8.21597772938922   13.68187984982442
H        11.49718710996477    8.02251657542462   14.69365938659996
C        11.98297881650728    8.84395151164264   12.69040499556933
H        12.99153606564812    9.19715395951025   12.81719346285893
C         7.89245192933345    7.51853046002838   11.09228100470780
C         7.59813538589322    6.24633042961140   10.60989637512111
H         8.29205620640523    5.73429269066047    9.96059722433068
C         6.40502251925847    5.65363572735306   10.98858266716132
H         6.13894041093609    4.66475891859743   10.63728224492171
C         5.80069772122627    7.44140022967344   12.24059057142597
H         5.05231822569685    7.87893693266649   12.88881516069597
C         6.96438500643183    8.12670459654774   11.93255870405799
H         7.15214244804362    9.11395278459687   12.32572817905122
C        14.37525846111743   10.35970957839271   10.84435105435894
H        14.68599950652520    9.50541397161935   10.26865861008587
C        15.17310788370140   11.07397861205077   11.75138020720752
H        16.20155848927701   10.87080120636706   11.98216797370671
C        14.37142637530109   12.05974645825874   12.27433328256707
H        14.63544962134386   12.79636504692587   13.00845001607685
C        13.10253094420806   11.92579498631991   11.65239599985922
C        11.98813315209088   12.74328509536677   11.87838316088492
C        10.78627426934970   12.65962605154878   11.18884952535470
C         9.65075304843733   13.51082304845705   11.34526906558810
H         9.55924444475403   14.30563196574983   12.06070941490823
C         8.73602492333935   13.10860466673820   10.41147720295385
H         7.76064017313788   13.51565317146111   10.22432887869680
C         9.33279358252366   12.03596231621187    9.71053981277201
H         8.89229114698410   11.49676725062227    8.89000412147679
C        12.11100636126328   13.79367814881047   12.90919415276539
C        12.94083918590790   14.89598716369269   12.72464177044244
H        13.51330129465552   15.00256780501960   11.81566402796040
C        13.00656962484934   15.85094501301773   13.72559286099064
H        13.63761769223219   16.72437191485981   13.62068558041807
C        11.53768140561753   14.72545114708587   15.03117114359593
H        10.99790185668274   14.69999512962778   15.96910396129189
C        11.39022686653549   13.71328088461369   14.09710582716223
H        10.73821555066679   12.87342772031925   14.28153701573588
C        12.76970391886635   12.30110424166530    7.77544722587183
H        12.12034459090878   12.92742191461982    8.37287007476755
C        13.49741612303674   12.83989303733966    6.70776955080261
H        13.41911555790801   13.89194710378855    6.48242808783837
C        14.29716181251417   12.01167585159035    5.95908882556990
H        14.86823443599842   12.38781803539362    5.12213825363035
C        14.36825608221927   10.64856544120210    6.29132510022279
C        13.60592619160513   10.21066777840450    7.39620479053334
C        13.65379314203185    8.82704480816263    7.78297008409665
C        14.44204426252325    7.92484539464274    7.03575300473223
C        14.44836534024083    6.58159502162837    7.44710404338911
H        15.03671180232503    5.85847814387522    6.90023765670683
C        13.70462373208262    6.21564265570580    8.54212314769390
H        13.68474153964164    5.19320928029504    8.88559662125445
C        12.96766364089164    7.19268860032088    9.22202500774478
H        12.38370865674909    6.93549609870750   10.09594497036348
C        15.15922341230004    9.71007086106607    5.56821488505394
H        15.73276864750990   10.06958283126420    4.72616474869047
C        15.18965075134295    8.40272299542351    5.92130242348349
H        15.78649447822337    7.69323414080746    5.36664711952537
N        10.38400977577611    9.32374757641569    8.91483757338120
N        11.34319181591621    8.93520440875335   11.53829482543246
N         5.52144195866164    6.23221968009610   11.78401177992608
N        13.14688675234980   10.85928941190408   10.78227638256520
N        10.54400929154034   11.76546910321356   10.16252149799863
N        12.32480644015705   15.77341767632478   14.85580969036625
N        12.81953168538812   11.03225423729970    8.10775165015231
N        12.94435650471325    8.45363709181632    8.85854440466466
Ni       11.77189461203326   10.08933767481632    9.84058352169087

