61
CSD_code = POZRIF | q = 0 | S = 0 | Stoichiometry = C28H25NO6W | MND = 6
W         1.34385498878404    1.90683076224979    9.63648856281300
C         0.12475303940321    0.73529363709741    8.57205751180284
O        -0.50986648229993    0.00279754114513    7.96256597019436
C         1.81335298118393    0.34963547791965   10.79340567985921
O         2.10632121220124   -0.54402261637613   11.44515975690253
C         2.60316120296631    2.95067667619542   10.78581836874612
O         3.32757987110467    3.39538164842186   11.55333439747134
C         2.80945521253491    1.32284727014716    8.41527718541919
O         3.65119248366578    0.89262597288534    7.76698201583094
C        -0.06535059975552    2.41587356515759   10.96462138151792
O        -0.78941336152883    2.64030393639679   11.81843200054105
C         0.85986973112945    3.49937701732646    8.24044479322425
O         1.67611396950256    4.40640624099118    7.72832762271823
C         2.99309511124254    4.58509944057157    8.21887639950364
H         2.94733499376625    4.84267116988311    9.28465218726467
H         3.56204100280213    3.65419809845916    8.10314972638349
C         3.64447264683093    5.70801567273302    7.42722048000987
H         4.64898544742248    5.88425769010086    7.80015675563695
H         3.06351842612241    6.62104199086324    7.52756918146085
H         3.69576042979657    5.44106574094659    6.37488989572369
C        -0.38584714465210    3.49058773755567    7.50364751164894
C        -0.41411401450735    3.60379042744047    6.14010037283961
C         0.85871882513933    3.66423365221504    5.38137132653119
C         1.22688444660066    4.80787014377606    4.67949693894932
H         0.57514190592037    5.66959405108949    4.68513527003526
C         2.42755944896145    4.84617928538785    3.99385759120419
H         2.70920150969560    5.73948346659613    3.45553381197691
C         3.27067291475117    3.74659333702307    4.00258602173250
H         4.21018752568733    3.78156285821432    3.47140160810926
C         2.90765816381506    2.60422337619324    4.69664554570451
H         3.56211938722181    1.74571536783810    4.70956621864423
C         1.70530047412561    2.56020727388246    5.37822297744538
H         1.41613422950606    1.67073646508155    5.92188861151868
N        -1.57439291358879    3.53753371734087    5.41579566852604
C        -1.58027828513455    3.33384736460001    3.97250361363720
H        -0.55626085964230    3.48687155599881    3.62204372524564
C        -1.98675258643332    1.89936928070267    3.62918733294774
H        -1.89631991733315    1.73765767547889    2.55829996067535
H        -3.01345808592403    1.69698803366484    3.92330466516455
H        -1.33621036902721    1.19437111531449    4.14217265729429
C        -2.47512688537308    4.36097940043330    3.27814857105851
H        -2.32381803314499    4.30585134063219    2.20341910695488
H        -2.22489510880107    5.36519462895023    3.61209339811515
H        -3.52774029362569    4.18201812788512    3.48066025175888
C        -2.77046088864206    3.37051989990575    6.09735381118974
H        -3.64749147587545    3.30556547257184    5.47502993105142
C        -2.85380497391930    3.27116704780004    7.41715211568632
H        -3.81132782415608    3.12640135831836    7.89076350853176
C        -1.66064754711687    3.38128978449612    8.31884667371355
H        -1.62581495581095    2.49709467656194    8.97295780847156
C        -1.83951997344695    4.60060192851569    9.20898889225068
C        -2.64355724752316    4.51335323689644   10.33866508302014
H        -3.11271671587436    3.57207966325565   10.58841451025409
C        -2.84020106036567    5.61452888948449   11.15112708340469
H        -3.46011452662893    5.52942571616066   12.03155093847571
C        -2.23872145509662    6.82220356947151   10.83980926139396
H        -2.38658537657953    7.68236460476665   11.47612197650759
C        -1.44977359609812    6.92183401048771    9.70753793801626
H        -0.98329290347724    7.86343073427864    9.45505916231311
C        -1.25651540499541    5.81957010712207    8.89298894963399
H        -0.64315071550674    5.90863268350444    8.00811972533983

