49
CSD_code = POZSUU | q = 0 | S = 0 | Stoichiometry = C20H19N5O4W | MND = 6
C         4.57629961435472    2.72520024232570    2.99017303050652
C         1.79007850811398    2.99794910831254    2.90016615049481
C         3.22097595024445    2.14730572734821    5.15142329612515
C         4.81746133996799    4.26101933434483    5.13578780096132
C         6.40717333413945    7.31394680719163    5.53680265485646
H         7.37267804263172    7.52601945529746    5.09815233476785
C         5.26454196534041    7.27847807534278    4.75158578522912
H         5.32653986352989    7.46182067407775    3.68954266909958
C         4.05136047811058    6.99294558839819    5.36742909998678
C         4.04428479056814    6.76691870480794    6.73912077927339
H         3.13003531736642    6.54026415180893    7.26660417705247
C         5.25021914864990    6.82923692140279    7.42116518965041
H         5.29165658413057    6.65426814113775    8.48758289121701
C         2.74422157360146    7.08379539458932    4.58937530016629
H         2.40443009308943    8.12646218009401    4.65663741872779
C         0.30142983101630    8.16949460286267    6.04543046564492
H         1.11220882133991    8.68715045862099    6.55939444023752
H        -0.59635819206623    8.25513361407303    6.65101109095531
H         0.11715813222406    8.66922458750299    5.09349705333907
C         0.61451114683180    6.73058270674791    5.84832837067514
C        -0.05954561395054    5.61242987582992    6.27675873793169
H        -0.96689956506151    5.58558171258528    6.84425567934757
C         0.68269858281490    4.50986121533105    5.81879973145927
C         0.36465798729783    3.07597374137456    6.02730054673212
H         0.35896481184147    2.54167928085718    5.07841190411738
H        -0.60912649180621    2.97814280702796    6.50051765018496
H         1.11617303894027    2.61159111960558    6.66436588911673
C         2.53177118762688    9.13853952151864    2.35250386179207
H         2.57534595841678    9.63494565785205    1.38719006881615
H         3.23930101188530    9.62903049351969    3.02218673349495
H         1.52569280898383    9.26606951899076    2.75430261258738
C         2.86261321076508    7.70162369912486    2.17084998217310
C         3.17154672985166    7.00350481363020    1.02831362771065
H         3.22363738051221    7.39063204477703    0.03157226032899
C         3.40476196224393    5.67730335493474    1.43225582226605
C         3.77611404671050    4.53481768941672    0.56195887909584
H         4.77430987751802    4.17834514569051    0.81294332297934
H         3.76201406476316    4.84382599320871   -0.48029519914576
H         3.08396196857016    3.70536736299253    0.70021989243364
N         6.40165386659234    7.10914909660886    6.84041179886428
N         2.91398692409267    6.79951197358069    3.18856904590443
N         3.24898260278232    5.57691747914023    2.74292844057082
N         1.70058288292153    6.27658992868232    5.16549400022010
N         1.74634318495248    4.93380020563986    5.15448442257854
O         5.35715233005021    2.05978594569333    2.46927042204773
O         1.01974242189669    2.42837497197531    2.26728861559767
O         3.28912716397668    1.17863244306467    5.76859865765942
O         5.78486502763524    4.29139427949713    5.75245757667832
W         3.25366429399543    3.74886215156339    4.01717501749298

