39
CSD_code = POZTED | q = 0 | S = 0 | Stoichiometry = C19H17CoO2 | MND = 7
Co        5.33279242745196    2.04769122989756    1.95503920998759
O         5.79453102526140   -0.45120962302835    0.58653858145028
O         7.40158302262697    3.41172950484148    0.47499804783571
C         5.62743416954398    1.95852117540840    7.88661497154450
C         6.81301283109054    1.45463282290093    8.40295198463482
H         7.61207972125339    1.10913492276443    7.76560696498093
C         6.97803358119392    1.39228562221148    9.77696597297786
H         7.90019946573092    1.00078686849991   10.18184513065363
C         5.98268493192900    1.82261788087397   10.63964243296471
H         6.13507901593085    1.76388867063198   11.70724807492305
C         4.79266158582735    2.32782402073364   10.13734721087868
H         4.01260402728556    2.66472024717110   10.80517704786286
C         4.62469937443690    2.39177772498825    8.77119425148096
C         3.45344449862022    2.88759807335578    7.98610227195494
H         2.54473418701207    2.32044627664969    8.20345852052166
H         3.23519320375326    3.93803829289966    8.19490465079033
C         3.90968949633525    2.68541686837922    6.57768896429563
H         3.28541432153112    2.94775151381618    5.74227722805923
C         5.14287228637405    2.15838006133399    6.51913898508776
C         5.90677350010939    1.82491504786386    5.25588005001448
C         5.04672661898449    2.19306427275911    4.06661383208665
C         4.96876379837536    3.45623191400590    3.42875972116666
H         5.50536807593546    4.34437320929029    3.72494341919144
C         3.85450878502027    3.46296308508006    2.52518587626369
H         3.46140277104481    4.33700551565358    2.03042615348011
C         3.29196092053910    2.18592057841756    2.53755101521052
H         2.37931419575413    1.87690044753602    2.05322084857779
C         4.06183231316939    1.38354264238737    3.44242177433787
H         3.77598093995883    0.39115487490772    3.75544232142146
C         7.21580620074582    2.62725403551403    5.21013769785498
H         7.69512031709265    2.49417156485233    4.24052033446522
H         7.90155958757097    2.29674819728537    5.98353791377456
H         7.02361732233090    3.68611340216628    5.36595959724969
C         6.21979712305581    0.32156562724343    5.21874006790656
H         6.65014117376604    0.05889311984861    4.25261240159369
H         5.31634127429007   -0.26359418915414    5.37271892585562
H         6.92625979975058    0.05279314964997    5.99751691647319
C         5.60037301637516    0.54147875158352    1.12668380299782
C         6.57130909294212    2.87837259877852    1.05898682719303

