46
CSD_code = POZVIK | q = 0 | S = 0 | Stoichiometry = C19H20Br2N4Ni | MND = 4
Br        6.76839559634753    0.92098569153626    2.72067565201456
Br        6.94943637806412    4.32747865017878    2.60176644715881
Ni        5.36886726495337    2.70167028887468    2.61256661071204
N         3.30737095242911    0.86525956313907    3.51915695984761
N         3.38614523972007    1.09928885967313    1.35464750504214
N         3.52271140409284    4.77416419530289    3.43838313769416
N         3.54602437401861    4.44664328424063    1.28447426294423
C         3.67949650368043    0.93301781766661    4.90586359378217
H         4.62642139376827    1.47389963609337    4.98645306161668
H         3.82204892232707   -0.07358453225621    5.30045577148530
H         2.91292082358902    1.44557473530185    5.49152992156370
C         3.95511973931858    1.48866490231229    2.51697524319953
C         2.35968159828090    0.21588592985358    1.61025924778255
C         1.47557879409786   -0.45999816576298    0.78509596723479
H         1.50137009157643   -0.34826123951759   -0.28757025944577
C         0.55200770200690   -1.28889600603322    1.39525073361398
H        -0.15198476082053   -1.83217228530650    0.78401373395976
C         0.50775536448716   -1.44188129106974    2.77907773846738
H        -0.22881735423621   -2.10157353519792    3.21091421382846
C         1.38522156198423   -0.77054823830815    3.61046112009035
H         1.34969416278736   -0.89251654887062    4.68132590238464
C         2.31216795848561    0.06290678299290    3.00634272470553
C         3.90737190697604    4.72422853691712    4.82240289796231
H         3.09577019500598    4.33193230652655    5.43932271473616
H         4.17417422450816    5.72324540636170    5.16924704871489
H         4.78549096034295    4.07882232354423    4.91665485878852
C         4.08980835713389    4.04881099296170    2.45610041686760
C         2.61574059683575    5.43743229828876    1.51490315260806
C         1.78830441004951    6.16253760633481    0.67289527272217
H         1.78498863611780    6.00515228095835   -0.39433441138940
C         0.95969327129756    7.10203422838876    1.25871829595122
H         0.30171969785073    7.68568470969701    0.63359059097927
C         0.95327743052938    7.31559171823929    2.63518233081072
H         0.29174731901045    8.06158740811156    3.04755148009651
C         1.77430954530640    6.59577587659146    3.48340216269682
H         1.76870972796213    6.76427465663943    4.54852238017502
C         2.60485017733006    5.65077975197427    2.90380539479208
C         3.88628337299879    1.44300519745380    0.04636321954458
H         3.65744795192374    0.60987442515473   -0.62225675975385
H         4.97950269286830    1.53101049844378    0.11560347525729
C         3.29998711463075    2.74102549609400   -0.52432348134295
H         3.42147226370101    2.71097279179874   -1.60785691157767
H         2.22998611451564    2.79145219239788   -0.30502938202673
C         3.99547135957874    4.01007708179217   -0.01468974572895
H         5.07894809396783    3.83813041114243    0.04325235101851
H         3.82171086859950    4.83065330934474   -0.71454664158405

