75
CSD_code = POZXEI | q = 0 | S = 0 | Stoichiometry = C33H37N2O2Ta | MND = 10
Ta       -6.03218306796832   -2.43781795079570   -2.63456841682559
O        -0.31279420388350   -0.64928078253319    1.20053335508277
O       -12.97656935081359   -1.35781763179219   -2.88071143940470
N        -5.21861562149144   -2.41504848011707   -0.71050190382147
N        -7.73970038041570   -2.57723568637867   -1.50675610325933
C        -6.35656968638134   -4.45265346569806   -4.00484517617029
C        -5.03574559233226   -4.49456214469064   -3.38813245122902
C        -4.10133369323996   -4.04879387094780   -4.38377471295911
C        -4.81200759629189   -3.66315184517255   -5.51320529714145
C        -6.19764485823613   -3.89912666772354   -5.28377765116707
C        -7.55939824673200   -5.20634584391882   -3.50985308747393
C        -4.65503416032069   -5.41835363109583   -2.26394589730928
C        -2.61583515731432   -4.06668975212672   -4.19122253071249
C        -4.28126876929681   -3.11930558373282   -6.79897875709614
C        -7.26828467123583   -3.65789523878150   -6.29873240537847
C        -7.36844050791355   -3.28517270310008   -0.40173522968316
C        -6.06965380776036   -3.20460666178935    0.00268549367864
C        -4.02967623764446   -1.97292887821085   -0.16919120600720
C        -3.75992969757760   -1.96106228675121    1.20215915394387
C        -2.54016160267833   -1.53032012254695    1.69324421912064
C        -1.55115702807908   -1.08472416125541    0.82616927665452
C        -1.82128128249623   -1.06282554405445   -0.54492349347934
C        -3.03066792633627   -1.49623889705482   -1.03147308413843
C         0.00594791669670   -0.63724715476628    2.56924961299984
C        -9.05730894698357   -2.27794271695493   -1.77816392877689
C       -10.06859001974657   -2.29248316941411   -0.81426461394012
C       -11.37937033506636   -1.99500596296216   -1.14165986114445
C       -11.71926644110082   -1.66255701611433   -2.44668052398997
C       -10.71196989164730   -1.62416013648912   -3.41462531231421
C        -9.41107354350586   -1.92612956834795   -3.09069767086016
C       -14.02673220361329   -1.36370757116556   -1.94643587238244
C        -5.88602899594101   -0.55059796059807   -3.44842784735161
C        -5.02691492724929    0.07243244959547   -4.39764843827442
C        -5.34527354902171    1.32431983993778   -4.96284911514276
C        -4.52006056777485    1.93068727319556   -5.88457245798850
C        -3.33458442649486    1.32434881606545   -6.27294548432638
C        -2.98884508683563    0.09887136286586   -5.72087578813407
C        -3.81356916464432   -0.51582015518828   -4.80492288833551
H        -7.58820106745551   -6.19925622745209   -3.96541693344800
H        -7.53455457134137   -5.34256461169012   -2.42797484164296
H        -8.48913023751363   -4.69629661978026   -3.76690830728651
H        -5.45598276927528   -5.51512512602926   -1.52886661348929
H        -4.43715856960573   -6.41709477386390   -2.65044762288868
H        -3.76176943845870   -5.05894111204994   -1.75009406824425
H        -2.34112845935072   -3.69441526252312   -3.20373615837254
H        -2.23813495620405   -5.08791275851081   -4.27909608156919
H        -2.11358811651284   -3.45775116457538   -4.93888711206220
H        -3.19845537944422   -3.03994698943738   -6.77811986038003
H        -4.56193196127013   -3.77265858083579   -7.62603402311348
H        -4.69428412913799   -2.13034693511087   -6.99684271814690
H        -8.25928982046113   -3.78236528406980   -5.86800354679388
H        -7.18778763428601   -2.65104508669853   -6.70829666787800
H        -7.16663775426662   -4.36107105165643   -7.12746375830663
H        -8.09361156391997   -3.88700848669146    0.13370960573885
H        -5.71895455509066   -3.74412732432846    0.87449263709644
H        -4.51843700706118   -2.27002927779477    1.90544361930935
H        -2.38251505526770   -1.54063395494842    2.76048823035247
H        -1.05609726323807   -0.69806529234701   -1.21138803190850
H        -3.23273401381914   -1.46262225566915   -2.09352366623928
H        -0.03408688254089   -1.64272337688278    3.00191963523643
H         1.02572803479210   -0.26051552724065    2.63199007127805
H        -0.65878929328034    0.02644766075154    3.13218206794326
H        -9.82760007619722   -2.51733072344714    0.21393524209039
H       -12.12330840292800   -2.01866939682759   -0.36083117081211
H       -10.98302443102747   -1.35472877075299   -4.42308680467527
H        -8.64151263719985   -1.88851395176400   -3.85441372949899
H       -14.16654823429628   -2.35518752717155   -1.50261530594075
H       -13.86211061596656   -0.62973331591801   -1.15063287720213
H       -14.92071431829029   -1.09201750616607   -2.50562451712903
H        -6.65554048614995    0.15348776977045   -3.11316908999611
H        -6.26576043126552    1.80821109417737   -4.66709401900353
H        -4.79630324448052    2.88777821947080   -6.30496677521306
H        -2.68498051145857    1.80330797591947   -6.99045756743562
H        -2.06038268835435   -0.37395083105738   -6.01028358762236
H        -3.53158812900823   -1.46673411624764   -4.37632811801803

