50
CSD_code = POZZUZ | q = 0 | S = 0 | Stoichiometry = C14H24N4NiO7 | MND = 6
Ni        0.58317248356602    2.16025793379340    5.67237759140538
O         0.99263585716402    0.73806349716265    7.04347378409053
O        -3.28904000609105   -0.68151687182698    4.60946051969167
O         2.27117446538691    2.98486739721393    6.02311825015937
O         4.44308299003423    2.83959428780474    5.64791680513106
O         0.21664218589262    3.31078846211780    4.27045011905540
O        -0.82378836065238    3.47270540979273    2.32808762007879
O        -0.37996232866452    3.67358565214389    7.22821233570674
N         2.00022354838427    0.65491169903485    4.54529022441223
N        -0.92182503466409    1.00129720266657    4.89691132986701
N        -2.92821592326359   -1.49927532671245    6.65593261819573
N         1.74524340827594   -1.29752870074060    7.59925439667463
C         1.69117947812859   -0.23814102762584    6.77989101693845
C         2.49931479604964   -0.32410674860475    5.48670510728454
C         1.05357165565928    0.15059654056287    3.56654758850920
C        -0.29722266825930   -0.16464090147406    4.23744358888642
C        -1.77613845243087    0.56968243234309    6.01168412160749
C        -2.72085122181141   -0.58245030206591    5.67654793545890
C        -2.18688408321401   -1.72624769399569    7.87753171299515
C        -0.95224505064013   -2.60879982570356    7.62524201970078
C         0.04384244572897   -2.62483054984917    8.78745882909613
C         0.96642984090216   -1.40143499323875    8.81813779750239
C         2.98969126387612    1.64596028045967    4.14386289842129
C         3.28876946403345    2.57787163712921    5.37121010874160
C        -1.62576976202860    1.84266922020929    3.91404234496432
C        -0.67478823211326    2.96538481694461    3.41906363543500
H        -3.54891645374929   -2.24707415651974    6.37343999674541
H         2.36177636563675   -2.06461378084348    7.37900836891082
H         3.53958171160332   -0.09043845227888    5.73857775210472
H         2.45992250787444   -1.34725576382220    5.08309660901634
H         1.41380916805567   -0.77002740498783    3.07537062737504
H         0.90846763763510    0.91356258130340    2.79998902974848
H        -0.98200953187655   -0.57656779301488    3.48604479068675
H        -0.13144941148625   -0.93643888690451    4.99593354982256
H        -2.37875300355505    1.42224504596591    6.33818137144516
H        -1.12664854937539    0.29298424576763    6.83928578251301
H        -2.85301750839814   -2.22338179339281    8.58678259830985
H        -1.89686366997829   -0.77219632070820    8.31831957509148
H        -0.44402495881568   -2.25579286661569    6.72505404047203
H        -1.28955873873785   -3.62733423764480    7.42536460278903
H         0.66311764866013   -3.52093484934070    8.70778645558169
H        -0.49404856823842   -2.67847028473253    9.73431655337616
H         0.39730049329092   -0.47509544726430    8.90838729350369
H         1.64084481803778   -1.47660990731601    9.67613320231609
H         2.57091147304544    2.28519553257922    3.36486984991122
H         3.92695496626383    1.19808771206762    3.78721166003188
H        -2.46355821397495    2.35151396346836    4.39585402438298
H        -2.02404373617556    1.25883651401581    3.07945798754687
H        -0.42387751814189    4.39014825580390    6.58066390821685
H         0.47104031315097    3.78199456687230    7.67361607009170

