61
CSD_code = PPRDXC | q = 0 | S = 0 | Stoichiometry = C27H24CoN3O6 | MND = 6
C         2.67836538675689    6.11454947081737    1.26587556352200
C         6.09423171590558    5.68763949089342    4.19956446841442
C         1.85246029339587    4.62988099891609    5.54086051962401
C         3.72777847354313    5.23787503483076    0.88268479228120
C         5.89546531605925    4.37557580420566    4.70632063552683
C         1.45348392645464    3.74443486064510    4.50383925513902
C         4.17788372479991    4.88538426449298   -0.49857100215951
C         6.85577088353596    3.54547069934030    5.49648307725625
C         0.27831471019703    2.81976624118546    4.49281715046323
C         1.84244792691218    6.84794665567307    0.29774484035855
C         7.39131077293235    6.38339144000566    4.26726442133846
C         1.20699999044552    4.65478873874655    6.86512419247596
C         0.47638065002769    6.95242830265828    0.55650626720249
C         7.40754037502667    7.74614836029835    4.56098158266473
C         0.98766316923499    5.88582523564410    7.48163803337218
C        -0.35009882423413    7.62487066582640   -0.32278850955956
C         8.60682785525270    8.42933540989942    4.62278509350657
C         0.39373591622843    5.94277811455203    8.72773492580142
C         0.18033801559141    8.21860571358878   -1.45697468613778
C         9.79693795125925    7.76519533764023    4.37089168251274
C         0.03396672898407    4.77313882802173    9.37839426811881
C         1.54142444903777    8.14331561838646   -1.70432586874196
C         9.78351086460089    6.41767359211717    4.04766340929586
C         0.27843457773670    3.54577429777812    8.78322982486483
C         2.37254260491683    7.45912634568535   -0.83601763574634
C         8.58850110914202    5.72344708551669    3.99828896735568
C         0.85893153300308    3.48089500090794    7.52972853203648
N         4.30722980773904    4.67041670041927    1.93333103612623
N         4.65396503981139    3.95046266865730    4.51148064535258
N         2.19298410037581    3.89289934170216    3.41240874819970
O         2.44304980944671    6.25386740523907    2.49490670803783
O         5.10141674257741    6.29231243675080    3.71484049929703
O         2.76543889436854    5.46035200541877    5.29072772980112
O         5.31250104596551    3.94682286225616    1.83268968923885
O         4.21926017726843    2.89669398831057    5.00813463816165
O         1.92519968306874    3.33093142570017    2.33647440670122
Co        3.57755419490756    5.06218506439555    3.55311427607604
H         4.99970148125332    5.52552341082182   -0.82061503051666
H         7.61294959528639    4.16456641333591    5.96870256988250
H        -0.47729049907576    3.13779585912691    5.20548338278043
H         4.54650803645050    3.86033587404571   -0.47948276301287
H         7.33706448230900    2.80695582625040    4.85582040331134
H         0.59212369744157    1.80264180295902    4.72606253304373
H         3.35655369293814    4.96712685052132   -1.20447448904374
H         6.29236035443555    3.00295779596134    6.25570410671118
H        -0.13915880134750    2.81023101994568    3.48602055136014
H         0.07878815569483    6.48717733185461    1.44540227474781
H         6.47083956258498    8.24866463537462    4.74829270400341
H         1.28007105091008    6.78619577261987    6.96314436984587
H        -1.40914745584825    7.69076032344920   -0.12276719769000
H         8.61523398355897    9.48215199046225    4.86289345785356
H         0.21485974560195    6.89922947961902    9.19600354916639
H        -0.46467794630340    8.74704402655672   -2.14315805291105
H        10.73416769441529    8.29978156902090    4.41703796931447
H        -0.42800266050042    4.81760489710780   10.35352838032798
H         1.95805285649600    8.62180166014954   -2.57827643495160
H        10.70946250310378    5.90587406252568    3.83122796294352
H         0.01681992909355    2.63440004429121    9.30004184856424
H         3.43479730272380    7.43079921536379   -1.01762006055944
H         8.57482475470503    4.68379478764095    3.71367036201569
H         1.08064889179013    2.52597984386411    7.08150542503480

