20
CSD_code = PROLPT | q = 0 | S = 0 | Stoichiometry = C5H8Cl2N2O2Pt | MND = 4
Pt       -0.28099580747779   10.74081514848235    5.86848971127489
Cl        2.04531581882911   11.96497878773671    7.08523024654494
Cl       -0.01244659173051   10.82041590446938    3.68371301895317
N        -1.65231982581918    9.06088644947581    5.69120222016310
N         0.62148627790463   12.21476422167909    6.38805320324227
O        -0.63896209036739   10.17810693600072    7.84204112782492
O        -1.40854444020287    8.55357830320718    9.14859681355558
C        -1.97578171871098    8.14328562580810    4.59354296475839
C        -2.70294024161235    6.96414235165055    5.27293154317225
C        -2.25311564669873    7.01689596664091    6.74868169647444
C        -1.23066818839101    8.15421575127449    6.77313089862675
C        -1.10117172673166    8.99653206952099    8.07154093548660
H        -2.53993135983077    9.48237844166253    5.99234148342324
H        -1.04171281196517    7.81294798754745    4.13280401830525
H        -2.57758665669422    8.64150250259742    3.83405225077835
H        -3.78310754312766    7.08153386162446    5.19304889198602
H        -2.43489422512037    6.02084075409752    4.80217866369081
H        -3.08239924519387    7.25238486807194    7.41658564521110
H        -1.81423960498966    6.08140534469921    7.08563390949586
H        -0.22948437205917    7.77028872374568    6.52880075702973

