95
CSD_code = PSICRF | q = 0 | S = 0 | Stoichiometry = C48H39O4P2ReSi | MND = 6
Re        5.77369872499576    1.84164314622928    1.29220697694920
P         3.85062144168032    3.11110193419853    0.54011220647675
P         6.78546193148536    3.16461918531702   -0.53686078009885
Si        4.76253569417545   -1.12896813382286   -0.80408215613072
O         5.59334018031972    1.30389604056728   -1.55075902989400
O         4.00365074665607    0.36441381738272    3.35964726260360
O         6.67578167081685    4.10701340155345    3.24856439600619
O         8.26335281309908    0.05252814051768    1.72030293723649
C         5.35409913213715    0.69775640701028   -0.50363897268769
C         4.69475630956158    0.84932869776118    2.57719875798048
C         6.28777741615807    3.26336910561675    2.57558581462910
C         7.33617023687505    0.72169199257621    1.57820391159544
C         4.44430974904047    4.57821885976141   -0.40781419143284
C         5.50396725250911    4.16099127194927   -1.42289400664077
C         2.72360170134672    3.91503328571672    1.72461601306991
C         1.59324311926125    4.58652196789332    1.26645536125031
C         0.75260593725201    5.21511077507869    2.16441196813289
C         1.02868635380365    5.17366726516680    3.52257830233687
C         2.14480739845419    4.49650363578141    3.98264043456554
C         2.99053726895542    3.86667703505868    3.08636755262985
C         2.61840551666463    2.29505087240225   -0.51932985731596
C         2.02652845107464    1.16504140998036    0.04111062206460
C         0.99775473985179    0.52073885027107   -0.61719802582383
C         0.56213666675465    0.98935366823065   -1.84576727975166
C         1.16916265721714    2.09277056822224   -2.41911683263303
C         2.19523960475407    2.74912649649824   -1.76160661233533
C         7.87612231686089    4.46841520758720    0.17191639915247
C         8.96957794546075    3.95052330419978    0.86484593223641
C         9.88892348931850    4.78462648883752    1.46586655601144
C         9.72254108689951    6.15886455574945    1.38881057774850
C         8.63765545389119    6.68291507358085    0.71010541832959
C         7.71669378267621    5.84496129598555    0.10252731578106
C         7.96208962440128    2.58993334721675   -1.79402375308779
C         8.32924252454218    3.42464119948315   -2.84378608365599
C         9.27015719663697    3.00111160103700   -3.76344107323151
C         9.86365787924273    1.75584675135298   -3.63105476553677
C         9.51028010846873    0.92953833782438   -2.57797592861918
C         8.55800564045094    1.34238208670143   -1.66444079740095
C         4.31578329885164   -1.84796897527507    0.88175027639850
C         5.33373236243346   -2.06787398951950    1.80893489592709
C         5.05679780900461   -2.54597417214345    3.07649059122949
C         3.74867014370300   -2.80072706542349    3.45004288764804
C         2.72342252606691   -2.57821365996337    2.54647147002483
C         3.00755662706771   -2.10714518536117    1.27806209711163
C         6.27833784105619   -1.99088214458674   -1.55837598329104
C         6.75473028385650   -3.20771143201362   -1.07821036124581
C         7.83671663210160   -3.83170360665906   -1.67224723691119
C         8.45711488507894   -3.25413160927727   -2.76732370204564
C         7.98969415417432   -2.04854313932402   -3.26261219452867
C         6.91315908545958   -1.42407137855491   -2.66042308422223
C         3.42173318369213   -1.21640355244062   -2.13599048616607
C         2.53813328558742   -2.28999781535264   -2.19555170706828
C         1.60724811232573   -2.39215533555315   -3.21268754790251
C         1.55541224764038   -1.42803012245912   -4.20526188814607
C         2.44036184514136   -0.36457284343971   -4.17178774224860
C         3.36072189761048   -0.26158276400300   -3.14511914041054
H         4.88794045767366    5.23878794829679    0.35066644735187
H         3.60374406015977    5.10923228208958   -0.86781073807108
H         5.07732668875770    3.52416374715826   -2.20208199292814
H         5.96400494308167    5.03377627420235   -1.89502156239583
H         1.36702679878992    4.60430221124119    0.20860219585679
H        -0.12326585444021    5.73627726174723    1.80617727198004
H         0.36790481563281    5.66504220931293    4.22121197334060
H         2.35754081251428    4.45510126115780    5.04040321657619
H         3.86043140419828    3.32806286052940    3.44069823892237
H         2.38199300326298    0.80711649691956    1.00065284118781
H         0.52768568155340   -0.34340051061776   -0.17260677162111
H        -0.24313421469232    0.48842036723732   -2.36129298988889
H         0.83845478295315    2.45078264284265   -3.38328062128729
H         2.65427507310685    3.61073476073366   -2.22541493051808
H         9.07926236258132    2.87282199234276    0.93233375387761
H        10.72981505589553    4.36780537058706    2.00032249667736
H        10.43398368178358    6.81886181709101    1.86265532154617
H         8.50082760026634    7.75365107188486    0.65403624235107
H         6.87707766057246    6.28755945296258   -0.41531543561017
H         7.88844234140057    4.40716338968848   -2.93913794153068
H         9.54832297555287    3.64863285013407   -4.58279677862045
H        10.60434229420868    1.43329983818829   -4.34813852635141
H         9.97169637933346   -0.04017578669737   -2.46521231369763
H         8.26566635348421    0.68970694215371   -0.85321053270605
H         6.35776884761438   -1.86983701893237    1.52801479550905
H         5.86240408691281   -2.70991968635824    3.77765416169642
H         3.52762084005053   -3.16637131166944    4.44229668866989
H         1.69895343467955   -2.76951092682065    2.83448126355561
H         2.20051398290187   -1.93350937238190    0.58154347562962
H         6.26948501174706   -3.66999741610557   -0.23084162457070
H         8.19540925900070   -4.77405553854996   -1.28298785117235
H         9.30011389570547   -3.74349103903981   -3.23431538110472
H         8.46341835118151   -1.59390952177807   -4.12151875015223
H         6.56337492382384   -0.47776387535557   -3.04664874869206
H         2.58957263232388   -3.06077728602061   -1.44061104936565
H         0.92626571016417   -3.23136678239118   -3.23892308768038
H         0.83383776464776   -1.51060851831777   -5.00574716880206
H         2.41450070364827    0.38445331918891   -4.95102857889713
H         4.04448941385855    0.57376806895331   -3.12525272352095

