73
CSD_code = PTPNIP | q = 0 | S = 0 | Stoichiometry = C34H30N2NiP2S4 | MND = 6
C         4.25184622412354    0.34719445507819    1.67607797078792
C         3.81203209816481    4.72506435565810   -1.33312417154117
C         3.86457726937344    3.50932268941732   -1.99461430499884
C         3.52782656655163    2.34366089355178   -1.33061587367489
C        -0.01214485392922    2.75670107086409   -0.44568280535543
C         0.14573148807273    3.93666505854963   -1.14998165366295
C         0.49492570006825    3.88241671140237   -2.48891963992473
C         0.67091496635844    2.63900314805701   -3.07272255540792
C         0.51048553962835    1.50172447518593   -2.30128447818882
C         5.47902269378150    0.64039575859152    1.09869263301475
C         6.63835446289106    0.17212507228107    1.68966736953231
C         6.57394732378530   -0.58792231286178    2.84626304998264
C         5.34710234537739   -0.88352930583133    3.41791199451539
C         4.18522008454663   -0.41676281629342    2.83292484938646
C         3.13998941578548    2.39831980965321    0.00071208388061
C         3.08724765337639    3.61623773134622    0.66482514932762
C         3.42477263654981    4.77803049970402   -0.00365946962751
H         4.07452213095336    5.63379048399223   -1.85489481623900
H         4.16898913009143    3.46731387910800   -3.03027870468559
H         3.56133430891238    1.38818203870747   -1.83686361415994
H        -0.29998674213119    2.76711646011698    0.60077655773407
H        -0.00828622848698    4.87863952585554   -0.64881586451170
H         0.62333889177353    4.78728582521186   -3.06347700385417
H         0.93679846271162    2.54116671150460   -4.11312172785375
H         0.64883495837593    0.51288883595473   -2.72686363336787
H         5.52440228007250    1.23237494607433    0.19521551711952
H         7.59598557967725    0.40162198538988    1.24528246429525
H         7.48314330203134   -0.94979387410527    3.30363137914492
H         5.29651016643925   -1.47560884147919    4.31998278051958
H         3.21747162664800   -0.62652820072087    3.27002899843642
H         2.77405855748863    3.63968549720244    1.69954405464998
H         3.38625088828516    5.72595846110509    0.51257236013615
Ni        0.00009236580463   -0.00017790112430    0.00047069518684
N         0.17521807832673    1.56040368893749   -1.01001584902476
P         2.67745721178727    0.87746774908681    0.92020493258055
S         2.21766329253385   -0.56860264551959   -0.42332026055968
S         1.30606690437750    1.25643464556718    2.28168238758427
N        -0.17498435702294   -1.56095696844545    1.01078449782292
S        -2.21777048960296    0.56829601851459    0.42360037810635
S        -1.30586462956103   -1.25589674644894   -2.28205002682289
C         0.01186379941101   -2.75728621889795    0.44632943788032
C        -0.51018445081296   -1.50225214493633    2.30205747204810
P        -2.67721025483529   -0.87776449411804   -0.92000439197212
C        -0.14650539816216   -3.93723877734193    1.15054585210809
H         0.29958490105712   -2.76775708373363   -0.60015635201379
C        -0.67098728128844   -2.63951349032459    3.07343983284482
H        -0.64819061270665   -0.51338600364661    2.72767053538023
C        -4.25128608412375   -0.34669959918268   -1.67594028012458
C        -3.14035733705693   -2.39857047448613   -0.00085824338908
C        -0.49556256021119   -3.88294561974491    2.48953276553136
H         0.00702538819909   -4.87923796158868    0.64927325976203
H        -0.93673129496984   -2.54161246075933    4.11386428059169
C        -5.47862483818364   -0.63914812404645   -1.09851051493957
C        -4.18425880660347    0.41692867374333   -2.83298804597228
C        -3.52761393566610   -2.34441591557733    1.33063496683780
C        -3.08838932222958   -3.61615511410204   -0.66560852877924
H        -0.62425530273716   -4.78780101428741    3.06405555987338
C        -6.63769939632111   -0.17041611971750   -1.68962226967404
H        -5.52435305002321   -1.23098173039347   -0.19495170116309
C        -5.34588509427722    0.88415979641929   -3.41810959643157
H        -3.21638822308004    0.62601773143010   -3.27016114066722
C        -3.86459408143507   -3.51026088886385    1.99417288611324
H        -3.56052213680327   -1.38916565597478    1.83736307484848
C        -3.42613511541968   -4.77813996992788    0.00240118082388
H        -2.77534440640971   -3.63922245135384   -1.70040683763731
C        -6.57288407723547    0.58936071538908   -2.84638167167959
H        -7.59545931106194   -0.39926080181886   -1.24517438996190
H        -5.29495466802590    1.47605006293682   -4.32028752503050
C        -3.81286530244521   -4.72568661319621    1.33202082368371
H        -4.16864256038547   -3.46861977623356    3.02996312082930
H        -3.38816422307271   -5.72582902076932   -0.51432756436043
H        -7.48188840468967    0.95169967326815   -3.30376792221838
H        -4.07563386232936   -5.63455799700399    1.85338627654850

