117
CSD_code = PUBJUR | q = 0 | S = 0 | Stoichiometry = C48H60I2N4O2Pt | MND = 4
Pt        0.00041462999796    0.00243808305220   -0.00271246732816
I         2.26400571215897    0.76412638362179    1.07033535711531
O        -5.82606615426327   11.03932976341441    8.07686403060913
N        -1.46741039515238    2.26534098927995    1.47589139357838
N        -3.56424526616316    6.88309242030800    5.21684596497401
C        -0.90589112954669    1.42463212310551    0.89733828269393
C        -2.12323563353202    3.21979008977298    2.17205338790304
C        -1.38271688996203    4.05802120243562    3.02525788693825
C        -2.08041027221995    5.00418558297443    3.74733630461815
C        -3.46622588150590    5.12784714711321    3.62904309502480
C        -4.16735158684192    4.28737511354248    2.76390413139297
C        -3.51605858377172    3.32450320704652    2.01697276728411
C         0.10814567807258    3.86292500206575    3.15273364519325
C         0.84748629386159    5.13324509423423    3.56342661782937
C         0.38193878956219    2.73938427514917    4.15972443346062
C        -4.23798323394471    2.36933557137007    1.09815224975204
C        -4.50530582220084    1.05814708077345    1.84676804829365
C        -5.54122110234777    2.93424000511627    0.53894094263972
C        -4.17774740199294    6.12848970207856    4.39987477269974
C        -4.17443610097095    7.89246039323164    5.92495324630067
C        -3.67490778218021    8.18956297691782    7.19354317848384
C        -4.20776931613618    9.21417834823576    7.94903383229983
C        -5.23864624815996    9.99765454215065    7.43452819033389
C        -5.72328735412403    9.72374102606884    6.15231317226286
C        -5.21004695639353    8.68469336811903    5.41312312767956
C        -5.36434651817527   11.40483643953944    9.36142395919233
C        -6.17661186108305   12.61079180718143    9.82038381683920
C        -5.75217734531997   13.08824853944958   11.20605758592358
C        -6.56512815627435   14.29670695799656   11.65335336883185
H        -1.57742095719050    5.67334037020630    4.42446855603034
H        -5.23739774126168    4.39633565048702    2.68309996720034
H         0.50195723449814    3.54865831927009    2.17925997937084
H         1.91873531743892    4.96876157611844    3.47630638411044
H         0.57258112713737    5.96538882611515    2.91917102364343
H         0.63007538963937    5.39948181623240    4.59454170968936
H        -0.10081760252649    1.81318839552669    3.85518980014831
H         1.45133739150632    2.55692897600395    4.22728879995296
H         0.00709907912586    3.01562217580628    5.14300992109267
H        -3.58336580720396    2.14640763545856    0.24798476373734
H        -5.15804802577790    1.23571223485745    2.69909263272088
H        -4.98095598072649    0.34331337042621    1.18033359695326
H        -3.57878971857509    0.61843669083831    2.20978670440724
H        -5.38193857598367    3.92050389437738    0.10820603830642
H        -5.91186459529379    2.27411768460300   -0.24133495077966
H        -6.30520610350331    3.00307309731223    1.30963770197453
H        -5.26482217114051    6.16903534314652    4.24669027703112
H        -2.87630168226758    7.58155881457596    7.58983050435469
H        -3.80862630598585    9.40087733589549    8.93364817229035
H        -6.50881164025401   10.35059460069023    5.75985466663189
H        -5.57851307156595    8.50239111301358    4.41401319706698
H        -5.49702028598874   10.57048462160108   10.06485381424137
H        -4.29646744284591   11.66221228295945    9.32194074449884
H        -6.04688227802589   13.41435332551617    9.09342865551874
H        -7.23293978960034   12.33680431070468    9.82765889475935
H        -5.88236323443093   12.27587541149105   11.92474363007081
H        -4.69150724479158   13.34922532134463   11.18990324282414
H        -6.25144153262428   14.62372918488779   12.64166883352093
H        -6.43192426983608   15.12335213437599   10.95935060544432
H        -7.62368922750022   14.05047499203470   11.69256708410617
I        -2.26330166709469   -0.75910361025644   -1.07691323217146
C         0.90587467764987   -1.42084032387505   -0.90192500895074
N         1.46661680379920   -2.26340086933872   -1.47855748184270
C         2.12260477104584   -3.21919142428038   -2.17276046554932
C         1.38207774896753   -4.06029857174202   -3.02312380384373
C         2.08013833972356   -5.00715162218770   -3.74395926893562
C         3.46623506704735   -5.12893929100326   -3.62694006513247
C         4.16726219618842   -4.28612625228776   -2.76403116132350
C         3.51566155377092   -3.32224165678022   -2.01866983808661
C         4.23773180861615   -2.36409708427908   -1.10312021854721
C         4.50667553778060   -1.05626203678452   -1.85700655639161
H         5.15984419967269   -1.23791025315407   -2.70814736484983
H         4.98244580400571   -0.33902751431974   -1.19326091646471
H         3.58070383685469   -0.61745349539429   -2.22249841039025
C         5.53994842445382   -2.92800381555456   -0.54053678049316
H         5.37931058714397   -3.91251145427794   -0.10631936772017
H         5.91032591653463   -2.26531632746089    0.23768559581273
H         6.30470428065417   -3.00043151981700   -1.31011083106973
H         3.58278709721168   -2.13703997180477   -0.25434891170242
H         5.23749590244993   -4.39380761627968   -2.68391283108732
C         4.17815072733273   -6.12961814196759   -4.39739200470203
N         3.56477835905094   -6.88490723474030   -5.21380108430001
C         4.17530911779151   -7.89370394437263   -5.92242126810162
C         3.67615621695621   -8.18995129445953   -7.19134678699525
C         4.20947438317643   -9.21384727863703   -7.94747555475149
C         5.24032438242522   -9.99754525257661   -7.43326016380193
O         5.82799743734695  -11.03867181147566   -8.07629817519210
C         5.36628834948281  -11.40321521302429   -9.36113703579553
C         6.17776329284490  -12.60944241313041   -9.82076971566117
C         5.75264862304317  -13.08595210912481  -11.20656844932418
C         6.56393469477841  -14.29537645220272  -11.65426171482022
H         6.24977051036503  -14.62165204313772  -12.64267318588336
H         6.42959198252434  -15.12205682769795  -10.96052136566193
H         7.62283325507223  -14.05059894486087  -11.69341930690539
H         5.88385998291021  -12.27354539560322  -11.92502806461823
H         4.69163132516623  -13.34552793987159  -11.19042820769656
H         6.04764505874766  -13.41325952999833   -9.09415929639185
H         7.23427340229094  -12.33615708200948   -9.82815501350566
H         5.49956019918052  -10.56852716809607  -10.06406453260568
H         4.29824939369220  -11.65997191682118   -9.32195274577199
C         5.72459394559697   -9.72448505120108   -6.15072683724032
C         5.21099835864865   -8.68602763762871   -5.41092338906199
H         5.57921186217605   -8.50423779652844   -4.41162423516219
H         6.51014682340733  -10.35146162231851   -5.75852353489832
H         3.81069889569346   -9.39978087361111   -8.93237958455159
H         2.87756337391062   -7.58178380018493   -7.58741177186673
H         5.26535522257816   -6.16924812798786   -4.24484348821372
H         1.57725847483120   -5.67826108993855   -4.41923015231868
C        -0.10924779451147   -3.86755210622127   -3.14898827253640
C        -0.84732361216927   -5.13998143233111   -3.55550183163380
H        -1.91872069480152   -4.97634387006931   -3.46836609473988
H        -0.57120525380152   -5.97005767904253   -2.90893151917829
H        -0.63013396599447   -5.40896007874343   -4.58604789267502
C        -0.38638680467034   -2.74686071715291   -4.15822292107834
H         0.09531536846954   -1.81912390098574   -3.85674965018545
H        -1.45619020921167   -2.56631728105390   -4.22452185291226
H        -0.01271492957650   -3.02485311651505   -5.14141495252855
H        -0.50203701137824   -3.55154385730081   -2.17566070346682

