69
CSD_code = PUBKIH | q = 0 | S = 0 | Stoichiometry = C26H38Br2P2Pt | MND = 4
Pt        2.24615546719508   -3.32690337220538   -2.77236317679326
Br        2.24569294518510   -5.82642560678508   -2.77298581760640
Br        2.24647740230763    3.42863369941106   -2.77250084503225
P         4.05006494748358   -3.42742745534903   -4.18891379769732
C         2.24577610918914   -1.30459490230560   -2.77272875668448
C         2.90030021938123   -0.59713402816089   -1.75936120875372
C         3.59849725497235   -1.28995818425268   -0.73770345282734
H         3.61908132615480   -2.37630852700419   -0.79949818024920
C         4.22892432718779   -0.63104941005176    0.27132441584893
H         4.75621780728958   -1.17362251882886    1.04220112353230
C         4.19693059010004    0.77703734478714    0.31046478128645
H         4.69385215316260    1.29533149782939    1.11711300685564
C         3.55580632910138    1.48439424988031   -0.66090839270454
H         3.55043992198154    2.56329676799110   -0.62146542756866
C         2.89366342004930    0.83643113557866   -1.73280875707270
C         2.24619244707733    1.50766234047421   -2.77258597623854
C         3.81659304922082   -4.59324566802870   -5.59734569676134
H         4.63577803546468   -4.45977455593183   -6.30912701476927
H         3.86215570140790   -5.60844200421224   -5.19469097234325
C         2.47248169284843   -4.37777328376657   -6.28199005823950
H         1.66418314210219   -4.54547932827672   -5.56963512924851
H         2.34667964721697   -5.08168667302391   -7.10221937736721
H         2.38898040739003   -3.36631014214016   -6.67651162860405
C         4.66428325554348   -1.92431840144184   -5.07585615369326
H         5.30160631797284   -2.24772440561368   -5.90395947332313
H         3.78463945934902   -1.43467549461092   -5.50434380272207
C         5.41342814434062   -0.93810617287456   -4.18969144651246
H         4.81586197304019   -0.66508230883237   -3.32379984023801
H         5.63616067416835   -0.03076394188587   -4.74834255967182
H         6.35285457172062   -1.35811040469251   -3.83797821477979
C         5.53311494393127   -4.10132256953914   -3.32657700212807
H         5.79528536033597   -3.38389389200764   -2.54193284162580
H         5.20759154990079   -5.02304119790384   -2.83361467799351
C         6.74077684231442   -4.39067533240551   -4.20954252023882
H         6.51637679162471   -5.16998981839268   -4.93325468583996
H         7.56823214082289   -4.73563934445053   -3.59207678928915
H         7.06760536666247   -3.50199189688315   -4.74455677044954
P         0.44134536702481   -3.42724750910711   -1.35711870946673
C         1.59150084861357   -0.59685697017207   -3.78606680265200
C         0.89332411886269   -1.28934627434850   -4.80797935355444
H         0.87246730213280   -2.37571469015868   -4.74635719569172
C         0.26328337985819   -0.63010871262370   -5.81703705479979
H        -0.26403275715318   -1.17240284279930   -6.58809402190522
C         0.29567434934867    0.77798124327509   -5.85597635095216
H        -0.20089889347633    1.29652619651421   -6.66268033191146
C         0.93680460923964    1.48502253016576   -4.88438436513999
H         0.94252669608512    2.56392996829040   -4.92369996472994
C         1.59857205163784    0.83671963195734   -3.81245409625816
C         0.67520023987256   -4.59255424021148    0.05167668907011
H        -0.14400025215197   -4.45919034953112    0.76346742179889
H         0.62998487235795   -5.60787721827742   -0.35070375468374
C         2.01928016564119   -4.37650543779083    0.73620860838500
H         2.82761579133257   -4.54436699759001    0.02393300157969
H         2.14520893971330   -5.08003826001231    1.55674733605548
H         2.10258020936014   -3.36486276443987    1.13031240373403
C        -0.17345600470424   -1.92414374751801   -0.47053541773933
H        -0.81051939188804   -2.24759153949656    0.35776244359610
H         0.70601216333993   -1.43396069052823   -0.04231907204315
C        -0.92316867794597   -0.93856852064089   -1.35694145378980
H        -0.32605759712264   -0.66586961070784   -2.22326096261736
H        -1.14582335573647   -0.03097876551004   -0.79865793818354
H        -1.86269268501984   -1.35892463260184   -1.70798036689114
C        -1.04157257718865   -4.10195670894846   -2.21903908410466
H        -1.30403883754830   -3.38484998542965   -3.00387355690514
H        -0.71578169527991   -5.02370810136471   -2.71176429938817
C        -2.24908992017459   -4.39146572525136   -1.33593600607168
H        -2.02429065894459   -5.17034357883176   -0.61187967985008
H        -3.07643071668800   -4.73708107983456   -1.95319220889028
H        -2.57626882015223   -3.50268080828991   -0.80130873814295

