141
CSD_code = PUBKAY | q = 0 | S = 0 | Stoichiometry = C56H76I2N4O2Pt | MND = 4
Pt       -2.83649148415716   -0.00127668398079    8.97719854815718
I        -2.85278507485815    1.00157497201286   11.39652509593275
O        11.29936471470146    3.29518945275167    5.84461626919680
N         0.17242441924759    0.60209428472100    8.76625150291333
N         6.08883901467457    1.93201177982747    7.07615950563538
C        -0.96014913330768    0.34316655295829    8.85214729101929
C         1.47455000756433    0.93927900770480    8.63678300414969
C         2.10585438724930    1.59998438145925    9.70427044725558
C         3.42303844190173    1.97876496612021    9.52741551597297
C         4.10010656445140    1.70483956023636    8.33885598683903
C         3.44795015997761    1.02486727154415    7.30829374853705
C         2.13306093856338    0.62711421200180    7.43339800910169
C         1.32221966106369    1.91533782028568   10.95497744474492
C         2.19106782525692    2.00490676231048   12.20702124897608
C         0.55173556311839    3.22445953838797   10.74681302070610
C         1.37888128363470   -0.06695740615956    6.32624855614410
C         0.60391885083840    0.97938971396948    5.51666486865357
C         2.28107725722344   -0.88584338860267    5.40704532210141
C         5.47285896635776    2.13849141753231    8.16739587803845
C         7.40028860125397    2.28609568846260    6.85976634606852
C         8.39497119944124    2.23166762948561    7.83735033088593
C         9.70629573189535    2.54702537039288    7.53636240276940
C        10.05141481572031    2.94671336949078    6.24849635955648
C         9.05960223644213    2.99224615459752    5.26249617942456
C         7.76299885846426    2.65122477249401    5.55737169190019
C        12.35036914632253    3.31753213439094    6.78858324274750
C        13.60368864288139    3.80501456162022    6.07002628442386
C        14.80390489259195    3.88662907426282    7.00814921976250
C        16.05322371939500    4.37950955939129    6.28199852763539
C        17.25902045305750    4.47862304590317    7.21314874961177
C        18.50394543189178    4.97781947063050    6.48401026410518
C        19.71064547863807    5.08936222526137    7.41259702202971
C        20.94560789708685    5.59658210435780    6.67817050171929
H         3.94156453816817    2.50101769614308   10.31607554750035
H         4.00765729218079    0.82953291306301    6.40951376195200
H         0.59177338785107    1.11479539975019   11.11699004786668
H         2.83018920271704    1.12915290307884   12.29739492031275
H         2.81250714057458    2.89700381239749   12.19437488790889
H         1.55101346172943    2.05569691653820   13.08435009167877
H         1.24353236805990    4.04895377174157   10.58672582480090
H        -0.10745688312084    3.15703006032032    9.88398646197624
H        -0.05641100437661    3.43817281807140   11.62190835939064
H         0.65270994379719   -0.75316985807463    6.77692798662275
H        -0.07695612521424    1.54162372028889    6.15234368089051
H         1.29290926618785    1.67865211267581    5.04780928964825
H         0.01775876927525    0.48849992451607    4.74415741743456
H         1.66510248465122   -1.48821750163055    4.74378711779497
H         2.90690850403390   -0.24257303493678    4.79408046619586
H         2.91905005002855   -1.55105243519573    5.98458175617870
H         5.91783227682520    2.67622727851934    9.01587064343663
H         8.14536860582821    1.90050345626472    8.83535996656205
H        10.45235055559259    2.47495343584472    8.31267864936804
H         9.34545138364761    3.29339006074851    4.26707477708026
H         6.99724921157526    2.68663829075338    4.79835358306222
H        12.10272042894099    3.99621361229229    7.61700794068898
H        12.51609391504242    2.31113149914328    7.19863432828801
H        13.81911327530948    3.12376341949930    5.24533774762615
H        13.39688508353346    4.78775126921689    5.64292409460988
H        14.57410874221242    4.56509989928205    7.83325078304984
H        14.99902290331176    2.90049287439034    7.43618938810276
H        16.28574367476757    3.69694757032502    5.46165035445350
H        15.85243981266962    5.36113590055056    5.84705287224270
H        17.02549126767158    5.15925724741375    8.03540463474755
H        17.46333656831097    3.49669018173032    7.64658095627797
H        18.74133825467341    4.29398940894092    5.66564139691918
H        18.29627571671991    5.95675350988007    6.04541477267034
H        19.47180652642392    5.76969440896504    8.23338230596304
H        19.92314384073066    4.10977559338963    7.84703478018573
H        21.79257874188899    5.66962522636216    7.35639469393312
H        21.21175820312590    4.92113107859939    5.86791988104903
H        20.75937765824234    6.58110070882473    6.25431524737561
I        -2.82066751558856   -1.00140119172364    6.55756588714936
C        -4.71232170068889   -0.34851469304834    9.09980142251521
N        -5.84543486508645   -0.60421885547075    9.18704623956971
C        -7.14769105123580   -0.94064589346032    9.31649489544686
C        -7.77906310473838   -1.60031934466395    8.24851188330873
C        -9.09642804529050   -1.97848130437450    8.42493298778072
C        -9.77352274404118   -1.70485082616624    9.61349675489136
C        -9.12163574252062   -1.02482412772690   10.64424418534901
C        -7.80649770381914   -0.62768947078164   10.51956581630844
C        -7.05198516649851    0.06642462255687   11.62652418975419
C        -6.27703075283168   -0.97997551582691   12.43603694418084
H        -5.59615397480688   -1.54223008125652   11.80037142870046
H        -6.96616307749533   -1.67918885427220   12.90475950830526
H        -5.69082620124468   -0.48925183174154   13.20864236189129
C        -7.95420706493386    0.88516313411380   12.54582559995357
H        -7.33860065721670    1.48781718052061   13.20913621635730
H        -8.57979672354482    0.24156038478305   13.15866906299155
H        -8.59235063471990    1.55011891512295   11.96819952227953
H        -6.32586886245521    0.75254107340845   11.17561638182739
H        -9.68202966818120   -0.82886669010558   11.54248483524002
C       -11.14663232957224   -2.13781468835304    9.78367941027207
N       -11.76266687864104   -1.93270808382149   10.87510607401804
C       -13.07427620488769   -2.28602596745900   11.09123726518360
C       -14.06880811583085   -2.23128674882189   10.11350843240315
C       -15.38016884174465   -2.54657119081609   10.41429001879076
C       -15.72539945123902   -2.94674524889980   11.70200279455217
O       -16.97310230591059   -3.29655665372335   12.10545092198740
C       -18.02403589794027   -3.31791770527003   11.16138025397317
C       -19.27765105491064   -3.80539235705027   11.87939619158573
C       -20.47762254145505   -3.88634081138092   10.94090023255733
C       -21.72726670700501   -4.37918342847513   11.66651993176035
C       -22.93257821565507   -4.47855990155683   10.73475770829348
C       -24.17789312148881   -4.97728117841498   11.46354586440348
C       -25.38444713482723   -5.08865107533266   10.53474896444259
C       -26.61949360099790   -5.59582730554295   11.26907641613333
H       -27.46653390867267   -5.66844170956798   10.59089385057074
H       -26.88540481599566   -4.92055673923027   12.07956102896966
H       -26.43349861018489   -6.58052812463929   11.69261802975925
H       -25.14558428246793   -5.76892684263665    9.71392452034722
H       -25.59686442664662   -4.10901268450414   10.10038702253321
H       -24.41531420921845   -4.29327145203055   12.28175485727865
H       -23.97058638426201   -5.95620782338744   11.90232513784534
H       -22.69858675140187   -5.15969319638217    9.91304841130155
H       -23.13655743845139   -3.49687036526443   10.30062746121676
H       -21.96024385788558   -3.69669770023840   12.48679260670205
H       -21.52657349778940   -5.36081080010553   12.10152381179809
H       -20.24793295992071   -4.56466832973198   10.11564868659527
H       -20.67226187036323   -2.90000714398613   10.51311691620656
H       -19.49296120721305   -3.12403750980709   12.70404110545970
H       -19.07153559307092   -4.78825953590332   12.30651185187786
H       -17.77641907489163   -3.99591825527215   10.33240424789822
H       -18.18942620517593   -2.31108613926733   10.75225513604134
C       -14.73383962828466   -2.99206823611866   12.68825398234434
C       -13.43715433379790   -2.65116959278775   12.39357519950553
H       -12.67143248383795   -2.68701145295233   13.15259703690968
H       -15.01986116701865   -3.29344064887671   13.68355618939843
H       -16.12607876592132   -2.47436990517807    9.63785355259959
H       -13.81903243013727   -1.90010070239394    9.11554636641367
H       -11.59091096096829   -2.67511688577057    8.93456162917843
H        -9.61526684701323   -2.49909608910043    7.63543297156401
C        -6.99572516333484   -1.91508403228163    6.99754410547535
C        -7.86472105702841   -2.00402700694724    5.74556050675008
H        -8.50373352380123   -1.12813797653935    5.65562007310474
H        -8.48628762973277   -2.89605498727955    5.75765295236561
H        -7.22457794099829   -2.05443177350736    4.86827141171767
C        -6.22499288571257   -3.22414388324325    7.20517031881782
H        -6.91642251427614   -4.04897362832082    7.36511375669842
H        -5.56560093335450   -3.15685090773160    8.06787012970707
H        -5.61702302129617   -3.43723043804274    6.32979725198223
H        -6.26527447299519   -1.11452631134906    6.83557147635012

