58
CSD_code = PUBMIJ | q = 1 | S = 0 | Stoichiometry = C22H31CuN3O(1+) | MND = 3
Cu        7.00239722872023    5.21285251409298   11.60724273058572
O         0.80958041350868   10.59101063171481   12.71742893328835
N         8.21965664227614    6.53595942123941   10.81726966906044
N         7.98784189605510    3.35501111965326   11.62569086485932
N         5.32107526453493    4.26952214971683   12.37979793458607
C         7.82064746493533    7.58557394179992   10.09705534074303
C         8.66797939631006    8.28567730140139    9.26096368144945
C         9.98795874239715    7.87064738760527    9.15958220981428
C        10.40089735769319    6.77996032714625    9.90604014410661
C         9.49482487651140    6.13051352739396   10.73544286922643
C         9.91563454468748    4.95258355855817   11.56805541750401
C         9.31794283742423    3.62149651098697   11.07006721368903
C         7.25265384116455    2.42469071004705   10.75771401638782
C         5.85370997475934    2.06117166058141   11.25114840244938
C         4.88677362979080    3.23095369812248   11.42689129982134
C         8.05563941397074    2.89598833579621   13.02457330756661
C         7.17878072724269    3.72494579454945   13.96893110511649
C         5.67392963495427    3.69431347955429   13.69388681471889
C         4.26162408713075    5.28424084486361   12.50562709197664
C         4.79570593475197    6.59773647903231   13.08368934642561
C         3.75987509076021    7.68308718130961   12.96761942520384
C         3.58939759587441    8.37789228298903   11.78063372290507
C         2.62048388839163    9.35730477215207   11.64964637015776
C         1.78886705973745    9.65775820744261   12.72483067999627
C         1.95478013675699    8.95703695598729   13.92252622923642
C         2.92455045781524    7.98652611437571   14.03734567558953
C         0.58868359693718   11.34160773868269   11.54573708251602
H         6.78667905879453    7.87820998474557   10.21139269937375
H         8.30497033664551    9.13529113327925    8.70682632269939
H        10.68201974812501    8.38923445105569    8.51697060314139
H        11.42147266021135    6.43564159941150    9.85263859847449
H        11.00261690851175    4.87800534035383   11.54287433599557
H         9.61199862694555    5.12073259574049   12.60298091933380
H        10.00659894444424    2.80329383620001   11.31819888263500
H         9.23750854891774    3.66284937119417    9.98088096983148
H         7.16757654692951    2.89363043610662    9.77323964250939
H         7.82227965927554    1.49053587915745   10.64011820521290
H         5.41556781382438    1.39820562388235   10.50240882198825
H         5.91915055446241    1.48394909106419   12.17213026054114
H         3.91970512069101    2.81923136890601   11.75025296795699
H         4.73854406800767    3.71606033766228   10.45863943591533
H         7.78619800605664    1.83885161151919   13.09063851358256
H         9.08622765318133    2.97814578826225   13.37940641021370
H         7.34406556295972    3.35999124887172   14.98471694422076
H         7.50964962249254    4.76765497864902   13.93258440959130
H         5.18829999032547    4.27897826670056   14.47759181490868
H         5.29134143393443    2.67457919164410   13.77881506100930
H         3.86806859106458    5.48935282221955   11.50761315196939
H         3.43417660712836    4.91085101201985   13.12078970102713
H         5.07673392788312    6.47169597378120   14.12978670211176
H         5.69949829540572    6.87203602898310   12.51737422541438
H         4.22633666712169    8.15652985738049   10.93476593328895
H         2.52358142459860    9.87806112697464   10.71043930660905
H         1.30639324904332    9.19882766960627   14.74889905328696
H         3.03841918487563    7.45931217055521   14.97319658266522
H         1.47112284489228   11.92887073143816   11.27343307252895
H        -0.23293605295919   12.01576681514378   11.77999265943500
H         0.30144266113522   10.70046101072211   10.70656621350007

