114
CSD_code = PUBRIO | q = 0 | S = 0 | Stoichiometry = C49H60LaOPS2 | MND = 13
La        7.45781325496383   10.26971932646104   18.87853360649079
P         9.30528432750667    8.21014474746401   21.24652559282218
O         8.25931267728427    9.16674060419148   20.78221735269182
S         9.10924390365289    8.28035019864311   17.56361399858078
S         8.46227763238369   10.77297071331672   16.20946760212454
C         5.42963700643233    9.10121329358998   17.88714892879319
C         4.61411664044397   10.15001486798792   18.47020383856572
C         4.27749673905841    9.75603458466006   19.76938860338851
C         4.85558090969362    8.47749329918758   20.02459831944235
C         5.53178749736636    8.05331982268132   18.88120131409978
C         5.50289080774670    8.83124833048236   16.39798770619965
H         4.57733012592558    8.34615355860026   16.07293421824249
H         6.33055404582473    8.16383474002212   16.15207571997807
H         5.61551128579996    9.75098596740389   15.82165940226516
C         4.01655405974910   11.27617403983672   17.66694028774825
H         4.75555908779039   11.74917549411733   17.01666642112463
H         3.58644017487555   12.04033353296209   18.31152767593937
H         3.21393187291474   10.89182423384037   17.03215411836350
C         3.39347558366935   10.46204008302665   20.74856142812763
H         2.50454505969942    9.86087914118226   20.94826490316245
H         3.06920244670577   11.42853065208729   20.37228348038008
H         3.90398006582442   10.61470316095107   21.70067581370194
C         4.70898331787361    7.74658563370205   21.32214865913181
H         4.98108991579567    8.39084147613320   22.16014020937882
H         5.34461376616987    6.86414885161736   21.35022077584484
H         3.67487200199238    7.43036802607311   21.47277776943965
C         6.06067087142970    6.67681080525154   18.58916663607270
H         5.39743460310831    6.16793657574299   17.88476353075362
H         6.11070379035478    6.07721970365856   19.49523058984990
H         7.05897377554036    6.70634819457782   18.14778174871251
C         9.25039793577181   12.55403836719594   19.62878060119499
C         9.33523783997298   12.30545462411578   20.99889881459417
C         8.02645654856328   12.38184958554278   21.55587241775802
C         7.12077157622756   12.68122564128583   20.54097753074858
C         7.85178469837368   12.76208479383680   19.29128047588998
C        10.37565023290679   12.83970028020983   18.66901477601370
H        10.37183877302662   13.89988290526625   18.40432020181817
H        10.27830706371613   12.27132048112360   17.74049209993504
H        11.34167494621760   12.61225479504074   19.11542116912209
C        10.56211064779093   12.00004071448097   21.80299179914530
H        10.62772862104492   12.66684668874279   22.66296655362526
H        11.46786778247483   12.11938282736223   21.21221464786318
H        10.53784869659936   10.97155185733627   22.18161084471649
C         7.69859176331077   12.22955754790573   23.00814871623121
H         8.47093861766307   11.66252624937370   23.52320164800936
H         6.74643215876506   11.71592995959201   23.14099716242586
H         7.61695613137890   13.20721064581644   23.48908534130402
C         5.70416337212525   13.13994026583998   20.73709936370363
H         5.26166265807945   12.67543679724341   21.61542944220981
H         5.08228786878124   12.91234996638475   19.87392616089110
H         5.68588642514929   14.22235368591710   20.89059099110690
C         7.42369138182388   13.65563092764424   18.14201144525892
H         6.34368089584795   13.63319849993289   17.99713097129876
H         7.90554294334656   13.37697407881127   17.20316447632206
H         7.70732093615585   14.68825456011879   18.36629305086945
C         9.17845139552571    9.25326932762661   16.19331657755207
C         9.93810977694011    8.77539312348208   14.98903532441480
C         9.99390667516800    7.26240252815660   14.96398576202090
C        11.25304498481987    6.85944746179153   15.20726346533123
C        12.11853832159593    8.02761340040860   15.36685047751546
C        11.39392129779642    9.15179191401431   15.23681833110144
C         9.41340054307004    9.37424160682707   13.68606465887076
H         9.49281771207369   10.45715631828772   13.71124102599766
H         8.36712975113852    9.11304720333783   13.54476166898680
H         9.99559252111770    8.98923027112675   12.85206129890080
C         8.76830285664208    6.44556690725963   14.75792930159361
H         9.01978620605544    5.41257061227865   14.53332365202576
H         8.17022687264118    6.84501084877340   13.94035114437114
H         8.15479796502394    6.45755482555414   15.66081454933667
C        11.77925157963210    5.46843445558612   15.31071209204820
H        11.00928896991583    4.73770598466989   15.08036504401393
H        12.13834878746846    5.28169930965411   16.32310236301218
H        12.61441541762648    5.32516496127067   14.62590557216570
C        13.58746606229048    7.90263801447123   15.58815658004020
H        14.03846072986222    8.87177911219878   15.78236402638829
H        14.06415126027787    7.47345493003481   14.70655207146385
H        13.78511171147966    7.24252518089472   16.43169572498395
C        11.83710059011325   10.57089326864454   15.26005029919856
H        11.05420348477215   11.20897146739564   15.66768998776729
H        12.05213286000040   10.91746364668385   14.24766926265070
H        12.73839844700545   10.69229028788656   15.85681382023214
C         8.76870784565281    6.48054891127438   21.04567946575737
C         9.10341233560006    5.74960319368172   19.91314275129493
H         9.72317530509399    6.19414846309995   19.14753463057711
C         8.63055095389125    4.45735297871914   19.76531190069688
H         8.88759239537781    3.89144847716575   18.88246764537722
C         7.82458064260805    3.89459592104667   20.74140894752560
H         7.45548629254366    2.88675988544297   20.62223299326206
C         7.48614019993658    4.62520708030814   21.86932957177336
H         6.85306671542423    4.18908934984753   22.62817358901482
C         7.95752668662120    5.91692972214662   22.02260194484056
H         7.70060653747857    6.49367410038915   22.90071038731525
C         9.59659832226333    8.45005669131193   23.02289031231692
C         8.51929404849795    8.91582354958125   23.76723649775792
H         7.59282065968283    9.13597383081727   23.25654589504311
C         8.65072695706885    9.11203415508857   25.12974557033129
H         7.81401727610028    9.47744941033954   25.70650512660254
C         9.86090311155094    8.84648058513831   25.75010004555880
H         9.96814556400526    9.00357640149047   26.81302727443526
C        10.93724401593058    8.38700833582358   25.00793033692233
H        11.88172315714629    8.18854685375032   25.49265402803623
C        10.80843711107679    8.18460443474880   23.64511776842625
H        11.65023388548554    7.83652648257960   23.06481095724000
C        10.89790356623545    8.36099440366518   20.39041932211896
C        11.16121323462027    9.49748718132199   19.63814514393792
H        10.40726551076167   10.27505444538319   19.56906513984135
C        12.37456470108092    9.62652556600207   18.98637633551261
H        12.57515581186379   10.50615439190913   18.39409818938804
C        13.32760849139156    8.62757837470163   19.09186687659157
H        14.27723528066157    8.73227991239781   18.58887206460965
C        13.06564672814699    7.49159138509853   19.84114304564572
H        13.80722053523894    6.70949217245377   19.91719500298792
C        11.85183142628482    7.35402457015191   20.48927137765265
H        11.63371015189040    6.46112140932343   21.05961482599481

