132
CSD_code = PUBREK | q = 0 | S = 0 | Stoichiometry = C50H75LaN6 | MND = 13
La       15.27492366797196    9.62458635931723   -4.02530424393615
N        13.22224206918248    8.69793348440552   -4.42416890223547
N        13.71349313322787    9.03213616220666   -5.57463536073600
N        13.04568335835619    8.83689680873196   -6.63724296833490
N        14.63080469512652    9.39022450525400   -1.72251066409583
N        14.17007417142630    8.97085648575123   -0.77440445529613
N        13.74920835782890    8.31561780066687    0.10919492878005
C        14.27032207712342   12.18395774377174   -4.08634304566097
C        15.72214073452333   12.13863874400016   -4.08205072807227
C        16.12613263646545   12.15504194246995   -2.70959882811793
C        14.97208364217409   12.14937011074386   -1.90753911035415
C        13.83391294952299   12.18385145526426   -2.74696512074166
C        13.43057605411983   12.55151540498510   -5.28741368069112
H        14.02768837935376   13.11329468264994   -6.00601709214432
H        12.60705327806654   13.19429739435443   -4.97596405815969
H        12.99555427487845   11.69095467269238   -5.79999650382623
C        16.59090757836698   12.61825103236410   -5.22926397399970
H        16.57222798814952   13.71197963441912   -5.27128855796489
H        16.25423379655256   12.24421361685657   -6.19753250546308
H        17.62946376837636   12.31784470943836   -5.09423703101080
C        17.49985040953156   12.43249191978074   -2.17118496823584
H        17.51199052873987   13.42039160434234   -1.70452786032498
H        18.24954080837274   12.42791290854359   -2.95623678647398
H        17.79098310746917   11.71263636126043   -1.40514256196321
C        14.98430955986976   12.23972036776363   -0.41167817037975
H        15.23005570036753   13.25460181281379   -0.08953551330480
H        15.73454784663171   11.57152997117127    0.01402612101860
H        14.01155841143435   11.98512800734159    0.00522406355461
C        12.41756173831071   12.26538776248444   -2.25980395419668
H        11.76928934225030   12.70235169195710   -3.01637898765278
H        12.35872933413676   12.89224352513771   -1.37033013557782
H        12.01664406106042   11.28028032983580   -2.00384907294792
C        16.55381465641117    7.30678253926957   -4.71154142891002
C        17.42224200600489    8.39265744661073   -5.03402306777215
C        17.89028425600229    8.95743163812937   -3.80886155912820
C        17.28682326724720    8.24245331837734   -2.74062591346882
C        16.46448125662398    7.22537561942057   -3.29688823619059
C        16.00309442413189    6.31562352269417   -5.70290541611770
H        15.90515050169236    5.33362863422222   -5.24223667865417
H        16.68149536552596    6.21301430319184   -6.54984401315904
H        15.02115358652170    6.60246991169774   -6.08596029048992
C        18.07771031386408    8.65678904415670   -6.36656791404781
H        19.09871029293690    8.26457715671268   -6.35879561435213
H        18.14187210796031    9.72408493090340   -6.58708753896329
H        17.54435884896358    8.16956873854286   -7.18053218446521
C        19.12392956823659    9.81169255284214   -3.70464112023547
H        20.00541381078536    9.20093550532266   -3.92088610686708
H        19.24088228699964   10.21730949163461   -2.70396992603470
H        19.11870283426569   10.63266054559851   -4.42131328293936
C        17.63603979655894    8.40229949030519   -1.28443615473565
H        18.64177898510758    8.02015481742765   -1.09187276987938
H        16.94139945403903    7.85248177200376   -0.65180330150051
H        17.61594025799751    9.44949405577658   -0.98051849210531
C        15.77512201602766    6.14886739255459   -2.49994297427510
H        15.62112797357394    5.26127583674293   -3.11096106724711
H        14.80145380744067    6.46364016079295   -2.11252443468475
H        16.39251439800642    5.85907998251076   -1.64959925342328
C        11.87414988292578    8.10003511379627   -4.39550136162122
C        11.80166977139598    6.74011623705064   -5.06314139294096
C        10.82456124911573    6.74455502802069   -5.98536285465938
C        10.21312580498216    8.06998950178333   -6.04162527474449
C        10.82815539481033    8.88311141312252   -5.16558283779675
C        11.47329885354248    7.98766190019895   -2.91857266632965
H        11.46880459677407    8.97566355856992   -2.46290349369329
H        12.18373719652621    7.35702508212862   -2.38807989453712
H        10.47987067506289    7.55233247482187   -2.83954157752274
C        12.67351688804057    5.61483751942016   -4.62490235686852
H        12.93997538148741    4.97508740702272   -5.46419678486183
H        12.16144772338046    4.99946203575006   -3.88133716966354
H        13.58137956148880    6.00853066842395   -4.17700216868105
C        10.37699624230692    5.61730095865949   -6.85333964774287
H        10.94753458453697    4.71566583640457   -6.64813892392478
H        10.50045424267259    5.87687925030641   -7.90483812220804
H         9.32101555792100    5.40597870091959   -6.68495026125657
C         9.08582003765116    8.39953306333607   -6.96020640946869
H         8.85170751186048    9.45994654624813   -6.92304737518716
H         8.19269485621597    7.83873550162236   -6.68178318815550
H         9.33911863150399    8.13125254681102   -7.98539895202487
C        10.54041010995993   10.31114071308098   -4.85724184106776
H        10.32801521858096   10.86992319647402   -5.76734260151918
H        11.39527969367274   10.75883682385660   -4.35900026608503
H         9.67303118760607   10.39791949187435   -4.19888528645074
C        13.59535482332541    9.22571544849337   -7.91045732004279
C        13.84792694298453    7.94479955061637   -8.72099933441036
H        14.60478644551328    7.34170485685306   -8.21511459982964
H        12.92511079115805    7.36317811170052   -8.75254345459585
C        14.31604029194588    8.29969701961171  -10.12945370512007
H        14.49359963144521    7.37733556668991  -10.69498219646855
C        13.24465220195712    9.13098283807234  -10.83293717405817
H        13.56985926190858    9.37767031476128  -11.84666169988743
H        12.31899871806009    8.55604045296086  -10.90796119606316
C        12.99719461220550   10.41215176173105  -10.03829506805188
H        12.22704346753910   11.01025972418349  -10.53930521789948
C        14.29310765779557   11.21849744847639   -9.95504396898974
H        14.63061979758311   11.48629431977791  -10.95915657802354
H        14.11924383449661   12.14508187493530   -9.40244853305873
C        15.36383318262814   10.38467547793965   -9.25143080669901
H        16.29496344043590   10.96215968786271   -9.19127235421068
C        14.89329081747756   10.03841583890049   -7.83952568084308
H        15.66055806430068    9.45672153728803   -7.31803110832378
H        14.70938282464754   10.95963848690097   -7.27915784804815
C        12.52444951743016   10.05890298646826   -8.63057739101917
H        11.59806035624315    9.48438980593202   -8.66343039050666
H        12.32956582924535   10.96899223976516   -8.05849555428945
C        15.61330692212546    9.10300256686099  -10.04500078688841
H        15.96504727186565    9.35096116335688  -11.04934227923220
H        16.38924107896919    8.50745898540967   -9.55796804476631
C        13.12442163402446    8.71182592716355    1.34870614056060
C        12.61374363491774    7.43948256001348    2.02583135841635
H        11.89870631964216    6.94036967928767    1.36924187632358
H        13.44885074343606    6.75749369483799    2.19527975632759
C        11.95033762077420    7.80950683530474    3.35229193733637
H        11.58436029465998    6.89846445817039    3.83698548222832
C        10.77879005153471    8.75566582222422    3.09077493160894
H        10.29302781263429    9.01343326474352    4.03384942402732
H        10.03797846539591    8.26527966321618    2.45561603146443
C        11.29215319054303   10.02353925358316    2.40933084350777
H        10.45419727248821   10.70224165655176    2.21776323054140
C        12.31372760038144   10.71445385971484    3.31213964379176
H        11.84279994901900   10.99585722512059    4.25590589519204
H        12.67700478696401   11.62736167943834    2.83491001112895
C        13.48168872467240    9.76547643934405    3.57835009807197
H        14.21498034654117   10.25928522340264    4.22476735091742
C        14.15171135079578    9.39995861981092    2.25412340491535
H        14.53251190017512   10.29914157756769    1.76478328216050
H        14.99359065232818    8.72610429579425    2.42906165274099
C        11.95022881182634    9.65755613825987    1.07914049256926
H        11.22844104578303    9.16692907824405    0.42154185345828
H        12.30835492473591   10.55879783704747    0.57493171215362
C        12.96992255619667    8.49714496001211    4.25977627238531
H        13.80345129241046    7.82145619914626    4.46366584591841
H        12.50472684895290    8.75153799676957    5.21408494115120

