68
CSD_code = PUBSIO | q = 0 | S = 0 | Stoichiometry = C28H38MoSi | MND = 12
Mo        9.44812284869822    9.57077238761593   23.11142202849054
H         8.66324080555720    8.74215864014259   24.18545477362588
Si       10.04955047408571   10.96713052366067   25.12968829806926
H        10.80830563755811   12.12624700165457   24.56421828971787
C         8.59486127015456   10.30125189607447   21.15904648057618
H         8.90405009817467   10.05612336500406   20.15054288881288
C         8.97941210575564   11.46820184620254   21.86902212549453
H         9.66980709421911   12.22228275083972   21.52088988149408
C         8.13729998155008   11.58941851389129   22.98641646371479
H         8.06314607445621   12.44712040607183   23.63887928083725
C         7.27085352951940   10.46925609931761   23.00653439314224
H         6.42601249165820   10.35412985980212   23.67370634358076
C         7.53258484754773    9.67616408285270   21.86265604615486
H         6.91311607170130    8.86950228416837   21.49892496326579
C        11.30731474573422    9.33922798625894   21.68852130304530
H        11.60842065359387   10.00175583509441   20.88890947902438
C        11.75693735331659    9.40300100222288   23.01166942177265
H        12.51239676634155   10.07388440061861   23.39299198002335
C        11.20512625538611    8.27611237954292   23.70499363415506
H        11.57827905759710    7.87899589611580   24.64267003330233
C        10.46544089193681    7.50020567239268   22.75287164902464
H        10.07023532418166    6.50891151836822   22.92228868486305
C        10.52504300877786    8.17082628805340   21.52787253306571
H        10.13026928749215    7.80209849565538   20.59078858244751
C         8.77593166896548   11.84936449691138   26.32367782257380
H         9.22343779210052   11.76170690854675   27.31299715544974
C         8.56308811155482   13.27298615689162   25.95013066332777
C         7.25987233161821   13.46153456788429   25.64205983851267
C         6.53782978983316   12.21948415240396   25.85816968290132
C         7.40310369503100   11.27720246667615   26.29533511430147
C         9.65634015206258   14.28742898726097   25.96438346724217
H        10.00688109380748   14.51436908223605   24.95574896689113
H        10.49648370432845   13.91283231483218   26.54107036037938
H         9.31033923459697   15.21795538306141   26.41308325922936
C         6.59938339243409   14.71730677272841   25.17485983340789
H         5.82301390569109   15.02581555871669   25.87537221905311
H         6.12585506755083   14.56193484280215   24.20404759073827
H         7.32237263845705   15.52366375171475   25.08055132750274
C         5.06568230503055   12.09989315623527   25.63261501340873
H         4.52223050771588   12.79032563213932   26.27840022160469
H         4.71763286228825   11.09054397022073   25.83740783017049
H         4.81692383104664   12.34919750621770   24.59980484517313
C         7.10921004013306    9.88988788247927   26.75174357365172
H         7.74826775631620    9.63931987662878   27.59434829972821
H         7.30204377712427    9.16624728372682   25.95945078677773
H         6.07056212608812    9.79261614975308   27.06096457344517
C        11.38967076634895   10.27984187085992   26.40290913485354
H        12.14824673900524    9.74438027174239   25.84190402314272
C        11.91654898981992   11.44299165710830   27.15610541660053
C        11.40395969294160   11.41702666242887   28.40901074450925
C        10.63646384450921   10.19502829479653   28.57988372667166
C        10.68606009293960    9.47764822746206   27.43248306144909
C        12.91320810995142   12.39130372040776   26.58095263217455
H        12.66156845450016   12.65268412881736   25.55531953131569
H        13.90271039958466   11.92811875577699   26.57251445473563
H        12.97950664146661   13.30544994442968   27.16678456768000
C        11.58431987352285   12.40922918035841   29.50995820752247
H        12.11661006152599   11.95855985445599   30.34816635858754
H        10.61539073781745   12.75006601830816   29.87621597258237
H        12.14851084364289   13.27508831177056   29.17296946506667
C         9.96949600441672    9.84909354584838   29.87060521111382
H         9.24407600150343   10.61713992930159   30.14226504839073
H        10.70342577293741    9.78716475539513   30.67452249870238
H         9.45194886924093    8.89529211769277   29.80652810891244
C        10.17376704676522    8.10154045239657   27.17383858456503
H        11.00930539421465    7.40178016744381   27.09270405268057
H         9.60783750892415    8.06221000419263   26.24501799062512
H         9.53615569565063    7.75866609731312   27.98483920494723

