47
CSD_code = PUBSEK | q = 0 | S = 0 | Stoichiometry = C19H26MoSi | MND = 12
Mo        1.82822420864153    0.07539589864332    2.52991347876267
H         3.24753303597289   -0.58772329940740    2.65109975304467
Si        1.34614869756158   -2.10026653838123    1.39558485638145
H        -0.11641928137581   -2.37040694359541    1.31829368584350
H         1.65012952754043   -2.17811767764617   -0.06008685928065
C         1.97960099760659    2.33655967753668    1.86091644822125
H         2.05833962958751    3.20734799085377    2.49829337619931
C         3.05419141992984    1.63703456424984    1.30401286446614
H         4.09988211291152    1.89541882466601    1.38942982213246
C         2.51162771435054    0.62699881932475    0.44378687009591
H         3.07588455158444    0.10906608757610   -0.32629703777217
C         1.08509482451391    0.77410443045618    0.44865372701870
H         0.40172298338096    0.28943004168392   -0.23182647378200
C         0.77430901274215    1.80411649243902    1.34181840433190
H        -0.21247789148254    2.21233832795654    1.51259241332625
C         1.91342378218794    0.62989668568194    4.75688818423689
H         2.63262121864981    1.24909576588397    5.27271286514026
C         1.90026971731489   -0.78244458256721    4.74218818147972
H         2.62787592805022   -1.42839240736838    5.21600549094991
C         0.67120133207963   -1.21755193064168    4.19129387038860
H         0.31242872627748   -2.23553495238909    4.20551441703546
C        -0.07137486888542   -0.07817091434555    3.82137679556015
H        -1.10146917090923   -0.07977184361369    3.49595450212605
C         0.68593785472476    1.06607083638085    4.18701078176615
H         0.30335253645152    2.07896211398448    4.23507945051084
C         2.09745068718026   -3.80355530734701    1.95699502239450
H         1.88732461809948   -4.49629777849131    1.14595381450294
C         1.55506886735028   -4.24492135471328    3.26092890682132
C         2.52984775242978   -4.15156826385261    4.19589861168073
C         3.76171191152051   -3.73637270751414    3.55216511472962
C         3.53849144705511   -3.59207191202772    2.22613456378378
C         0.16337686111476   -4.76271474920886    3.41520391447367
H        -0.51500570098829   -4.25406975269222    2.73251883993643
H        -0.20297493713128   -4.64542637809065    4.43488295806688
H         0.13227359663924   -5.82832172906576    3.17822620752218
C         2.43522129532693   -4.46694587279337    5.65436879747199
H         2.99334860147215   -3.74194430305308    6.24568971082531
H         2.85382868354193   -5.45373487480503    5.85869706954680
H         1.40026042832824   -4.46566690538196    5.99068002001119
C         5.04744473570461   -3.54451141419964    4.28754579727439
H         5.24109977582947   -4.38465581386227    4.95403415174720
H         5.01275064311284   -2.63548912460169    4.89057856923096
H         5.87665818337425   -3.45111474886289    3.59138219473620
C         4.50689852108253   -3.21223513941394    1.15847546671768
H         4.13088761972795   -3.51640885897282    0.18421050764890
H         5.47315390898629   -3.68699424161443    1.32257738983485
H         4.65832390076100   -2.13133423683028    1.14524250295329

