42
CSD_code = PUBTUB | q = 0 | S = 0 | Stoichiometry = C14H21O5RhS | MND = 8
Rh        1.87000960126378    2.02866137148179    2.12587546135827
S         3.78435160733023    0.95205567794282    1.29775689038040
O         3.92882324157653    1.16923262815454   -0.14389104576597
O         2.98320535115101    1.96625022781712    3.83770715244265
O         1.35419300889094    0.19861828028656    2.86957349417333
O         3.90188248326941    0.51424795537956    5.23696361961291
O         1.81760008758838   -1.27955393518303    4.45875877137606
C         1.80513144068646    3.73637294516087    0.76398087647003
C         1.38370293895083    4.16726396450035    2.05052467032996
C         0.22379321174508    3.38846504931924    2.41898486290088
C        -0.10600604769477    2.53239382004653    1.30913085362263
C         0.89139560279098    2.71130394826985    0.30914156991377
C         2.90494187768545    4.29381741743533   -0.07795976738127
H         2.47785219273201    4.89236529590999   -0.88350826825800
H         3.47940347878100    3.48505690375464   -0.52800443992774
H         3.57431910594289    4.92144535502510    0.50421797671117
C         1.95724252459635    5.26823869578338    2.88207093387851
H         2.31806724273632    4.87896099182566    3.83344822199984
H         1.18479104888213    6.00897654479870    3.08806465740865
H         2.78333644102361    5.75579992591287    2.37242201673688
C        -0.62049115304881    3.60658042849748    3.63258928713743
H        -0.01236323407003    3.94151177106611    4.46917487095480
H        -1.12924439501836    2.68865382949296    3.91673396049955
H        -1.37251227022942    4.37016023147757    3.42373419971234
C        -1.30219997385876    1.64030958726155    1.25285833091169
H        -2.18336597151066    2.18295465147608    1.59165812467821
H        -1.16017449380856    0.77731533804576    1.90433731201065
H        -1.47343841825476    1.28259459386917    0.24144359260642
C         0.94895757502307    2.09360018291092   -1.04850938167969
H         1.95196346645525    1.71383599955166   -1.24241613923795
H         0.71838162337470    2.84452606193463   -1.80487303810108
H         0.24355956814887    1.27270975483411   -1.13910860849171
C         3.05367712604678    0.81811021452016    4.42494959179524
C         1.98139220426773   -0.20672771369906    3.92383136086456
C         4.00158307143182   -0.83336878057353    1.56364744689128
H         3.08820645578635   -1.33285903923792    1.25776835837063
H         4.18793895702751   -1.01700788233418    2.61530020720827
H         4.83471661854225   -1.15589485717113    0.94963132423192
C         5.35072579977807    1.51387923029902    2.03493625868551
H         5.40167123207811    2.59135153600214    1.91991643501557
H         6.16414745782720    1.03740324813889    1.50030069577053
H         5.35743231408114    1.25298855001515    3.08633730217825

