43
CSD_code = PUBVIS | q = 0 | S = 0 | Stoichiometry = C12H20Cl2N4O2RuS2 | MND = 6
Ru        5.79140123654119    2.11307142338921    2.53289445702974
Cl        4.74484929941484    0.12452230702349    1.83826933558802
Cl        6.83796901386977    3.97369351642907    3.52293351857076
S         4.49996328292639    1.91209876786171    4.40937196921981
S         7.44684151641282    0.84866684480768    3.57051404274941
O         5.04989964511997    0.89318315426207    5.29242749691130
O         8.62116593469441    0.83676775588708    2.70256888099584
N         6.96478156245886    2.22316787460808    0.91195002215720
N         4.44048719550821    3.21727430678241    1.59267460966808
N         8.80929246165385    2.34557758674063   -1.16415169140591
N         2.52809272329764    4.75681267619470    0.26294397026845
C         4.19211541996374    3.35411531713348    5.48439450800718
H         3.93155574395889    2.96956361724527    6.46370275415716
H         3.39183295319532    3.95535415494553    5.07066037374812
H         5.11365077674080    3.92725019857909    5.53304810159217
C         2.75775997214099    1.46208241304141    4.12473258573438
H         2.75529362987409    0.53482384978269    3.55937375475298
H         2.28725607674294    2.25245721457358    3.54882533150193
H         2.27345397326824    1.32349452986056    5.08417963246355
C         8.05054797943333    1.36236728955659    5.20465194853752
H         8.92136729288778    0.75955433020073    5.43368380931809
H         7.25177234064223    1.21515206383815    5.92113337998377
H         8.32535582998300    2.41047154966556    5.13853815724664
C         7.10549200829594   -0.89103959645417    3.96346138574621
H         6.73014322606385   -1.36764117515215    3.06360505893331
H         6.35276383109350   -0.91272429965019    4.74169703801640
H         8.03587795858054   -1.34912164981015    4.27727302390076
C         7.42556623614473    1.11776793444380    0.32380117098559
H         7.03778094678246    0.16835671898446    0.66686464617492
C         8.34531242064164    1.19340097889208   -0.71258092278160
H         8.72225178678560    0.29922295980027   -1.18697220076223
C         8.34044376585971    3.43829081901440   -0.58513670955677
H         8.71771538896714    4.38189575188418   -0.95219150511205
C         7.41577489862083    3.39204066725828    0.44696189429685
H         7.05914943099982    4.29546587837422    0.92705243872624
C         3.93637802091701    2.84671257890152    0.40500276415146
H         4.27376402988197    1.90322187344637   -0.00572816754430
C         2.98262894482151    3.61853407086424   -0.23842800782126
H         2.56872283243412    3.31017278203320   -1.18746997258973
C         3.04722412487284    5.13288787815033    1.42277941649521
H         2.69151293403435    6.06899351708865    1.82898968028546
C         3.99333396514633    4.37884301477774    2.09508580656883
H         4.44355738832658    4.71859655474221    3.01891221308101

