119
CSD_code = PUCHOL | q = 0 | S = 0 | Stoichiometry = C54H63FeN | MND = 3
Fe        4.13462481528829    5.09798788061445    4.72391381947252
N         3.88147948564745    6.03326415899087    3.24964443320339
H         3.21155880890928    6.80682782658680    3.25339378972118
C         4.39963171522182    4.69784268932890    6.61335811386421
C         5.39125979555593    4.90107676532384    7.58729695552797
C         5.04471010424487    4.95179237725044    8.93836566098039
H         5.80683204421735    5.17702326351534    9.66947349969567
C         3.73926377860328    4.78457956186223    9.35650243029204
H         3.49497523314655    4.83586538779713   10.40798450087029
C         2.73857977911924    4.61280477463241    8.41513527236397
H         1.70235777535805    4.56822198130090    8.72419617714059
C         3.07129520130796    4.58527756611920    7.06969410456500
C         6.80776311064940    5.19467196361342    7.23996120026905
C         7.85327561699356    4.41423730374495    7.75736039427821
C         9.16941113708004    4.76871185619138    7.48607306796713
H         9.97685615056019    4.17212032874914    7.88221260165317
C         9.46729133674211    5.88334537184099    6.73191637711378
H        10.49566159372467    6.15194597668486    6.53652564909596
C         8.43899506694173    6.66470353454278    6.24011342450487
H         8.68464369992850    7.54778870816408    5.67251287756693
C         7.11191949530504    6.33484353985376    6.47488985012248
C         7.62245573388258    3.19685341300532    8.62831320858993
H         6.55734979837182    2.94834450600653    8.60616691856469
C         8.03308008615755    3.48316715246295   10.07751168688800
H         7.48158366963371    4.32145610260833   10.49389440691080
H         9.09314082296571    3.72221566165060   10.13061827294469
H         7.84556993849339    2.60861118248089   10.69750350184557
C         8.41479069084195    1.98229762029839    8.13310768704261
H         8.32022161565769    1.87181449444176    7.05836001467639
H         8.04568933556040    1.07683492776753    8.61076362065994
H         9.47053309372600    2.07810927346478    8.37563078419936
C         6.02325557051412    7.28175073820466    6.01541881429652
H         5.11713548570602    6.69007022739734    5.78405095238402
C         5.69546923157674    8.23660917083221    7.16780675718861
H         4.92210249018766    8.94167752160521    6.87303654043979
H         6.58468649176994    8.79545406832908    7.45453420465750
H         5.34674589236055    7.67941074173385    8.03425042684965
C         6.36328760516108    8.06945001115097    4.75140829235789
H         5.48107426864386    8.60895974364736    4.41335882432593
H         6.67559095795957    7.39268350163322    3.95980662402600
H         7.14765798333274    8.80174163047676    4.92850278185799
C         1.99852161477070    4.62128129754617    6.02268573374193
C         1.42056892150472    3.44816084634916    5.50601606999035
C         0.41253053451034    3.55942872099202    4.55570228122590
H        -0.05568369747691    2.67419001630345    4.15587117322796
C        -0.01573489324315    4.79689179633294    4.11133042771735
H        -0.79140314072216    4.86065228548791    3.36182036673862
C         0.52024146458249    5.94877104760298    4.65280976678136
H         0.14350537805987    6.90728286042201    4.32916456760450
C         1.51387143572983    5.88423256658725    5.62282623778731
C         1.83493485195260    2.09205131889497    6.03927896695003
H         2.91267885600873    2.12755325111692    6.23620507951059
C         1.54259357965024    0.94171684146012    5.07324626337627
H         1.84652322531738    1.18339376609620    4.05877476792288
H         0.48062193937547    0.70405156209771    5.06765919997073
H         2.07641136250248    0.04925431572930    5.39495576489564
C         1.10979975430190    1.80329693474148    7.35947688199970
H         1.42424469542166    2.49104065751741    8.13672379149356
H         1.33125997052406    0.79062977414960    7.69061777349321
H         0.03346024096774    1.89584154595382    7.22538720741369
C         1.92643898928788    7.14829117314251    6.35075564962478
H         2.80074943371746    6.92866014319447    6.96936014047849
C         2.29299760844315    8.30716238062228    5.42376094674845
H         3.19648301131087    8.07414387588063    4.86653755060490
H         2.47911722812548    9.20189602317379    6.01453831349080
H         1.49859980025502    8.53376139406408    4.71730799607800
C         0.77910297252973    7.55936298084855    7.28121659281472
H         0.52909175407323    6.74574997070477    7.95751580498092
H        -0.10930903454576    7.81179884373455    6.70646682092924
H         1.06575979584226    8.42442335350792    7.87537935023577
C         4.52320847330373    5.99836531011914    2.04889244730949
C         5.46979452391407    4.97668641094235    1.82744153468008
C         6.16313627175935    4.92456073695223    0.63216942090263
H         6.87954742606146    4.13191631053344    0.47164630345681
C         5.93136779423030    5.86705834449404   -0.35857381556575
H         6.47373455382375    5.81655113097398   -1.29076379434316
C         4.99576772041031    6.86821374914644   -0.15470996912483
H         4.80297442511182    7.59600760185101   -0.93030766404067
C         4.28653226584024    6.94769211191384    1.03202860610686
C         5.63992246849105    3.95832224848945    2.89010691460712
C         6.83469920691477    3.84319627554272    3.60954567271622
C         6.98282133371502    2.81924770751548    4.53709736603366
H         7.91854946705272    2.74279703139347    5.07093336237701
C         5.97863763424643    1.89124849221727    4.75877627310641
C         4.80183751635461    2.00985677399832    4.03400523499503
H         4.04004558261253    1.25612993006969    4.15266204656076
C         4.60636739490128    3.02805317021876    3.11081275329619
C         8.00024060700466    4.74686829948585    3.33534475241181
H         8.48828199278133    5.02801652881129    4.26494585127043
H         7.68876092610402    5.64412497886584    2.80801942615745
H         8.73159729130514    4.22823800734226    2.71427509255310
C         6.13473928473441    0.76919212566050    5.73936974377294
H         5.42446982735914   -0.02700314039152    5.52758230367738
H         5.94772439713905    1.13113381406240    6.74973147755397
H         7.13989705492343    0.35507852912102    5.70651040953657
C         3.35545336963344    3.02833517411671    2.27257581091845
H         3.04383769499351    2.00705490034416    2.06090187185090
H         3.51925524413020    3.54396027283105    1.33006430241284
H         2.54172644030952    3.53045914513805    2.80098272218252
C         3.27781568456110    8.00991506992777    1.26225845233878
C         1.91545284385453    7.69072868165749    1.25502658042949
C         0.98469121318883    8.68057843040248    1.52789809175059
H        -0.06785668222392    8.43149104312425    1.52127714846291
C         1.37292880998662    9.98412029876762    1.80527670284306
C         2.72524291390533   10.28734137308842    1.79164496295734
H         3.04461911650760   11.29969787137675    1.99724827482356
C         3.68330751881990    9.32036366752403    1.52174775777035
C         1.46136918093954    6.29191739631670    0.95920813071858
H         0.41822057919565    6.28568091999008    0.65169063482466
H         1.55826787290050    5.66464319065635    1.84657715016686
H         2.06651398616008    5.84942117753442    0.17004663791116
C         0.34782244691527   11.03023355093853    2.12620846313103
H        -0.51264681339423   10.94252965172033    1.46552176545015
H         0.76692287286473   12.02853287586514    2.02715085460360
H        -0.00448320073806   10.90968452828317    3.15155167394861
C         5.13578604730227    9.69553633340868    1.50152294541937
H         5.31930001997584   10.55553175380670    2.14191050321960
H         5.43720915707484    9.96043845114945    0.48767035973883
H         5.75990408318450    8.86703571252754    1.82763644337389

