40
CSD_code = PUCMOP | q = 0 | S = 0 | Stoichiometry = C15H22BClZr | MND = 13
Zr        3.39689927792544    0.51503287615390    2.66640832622466
Cl        5.52130861569101    1.31803265115694    1.96552901857593
B         2.06381511538433    2.29094326379737    1.69691346755991
C         2.49350260098506    3.66523261732478    2.46202498858041
C         1.29186309475263    4.29430537596437    3.17691710341904
C         0.14240187786122    4.53050305828575    2.19823500950713
C        -0.35530731673036    3.22532487503759    1.57961542586824
C         0.75065681535078    2.53898953136323    0.77125389907155
C         2.52702018869667    0.03737193813924    5.05727424116620
C         3.68875953469301   -0.74706759509985    4.90055271796924
C         4.78570515165692    0.12148978682924    4.72768775282643
C         4.30557603737491    1.44995394534947    4.81263778257922
C         2.91309135554078    1.39588912381375    5.02310456675060
C         2.53263206551171   -1.81606176854468    2.38642381369811
C         1.83529439334607   -1.12573730341302    1.37580404294900
C         2.76959221975341   -0.70498857566374    0.40709472881944
C         4.04642706375026   -1.12122387436260    0.81795492150906
C         3.91393251353453   -1.79986523718225    2.05297562530798
H         1.70684203089307    1.37128430389563    2.61493299838507
H         3.01925476349806    1.83901376429962    1.04294601062179
H         1.54040348795862   -0.33114909221177    5.31153079315038
H         3.75228512046419   -1.81960822902100    5.03674315492577
H         5.82889170952058   -0.16900651103191    4.67277772553021
H         4.92483481555680    2.33906166840716    4.83635643597052
H         2.27419758701323    2.23834034582454    5.25439201105475
H         2.07257010067162   -2.39663185780701    3.17737412956224
H         0.75898499546743   -1.04429692806194    1.29369174782718
H         2.53195981542610   -0.22477004637478   -0.53276814426797
H         4.96034617388778   -1.02745742850970    0.24485487439234
H         4.70129286584716   -2.36431644624000    2.54421257596668
H         2.85869442886509    4.39408245699671    1.73152081383833
H         3.31822469913630    3.51526230713999    3.17951987758752
H         1.57093168172332    5.24442428222550    3.64237513393801
H         0.94088238295652    3.62606898029825    3.97038306069131
H         0.48192100565217    5.19618038856259    1.40172724231302
H        -0.68264182861185    5.02543444143539    2.71765599789960
H        -1.21951529902940    3.43586975798181    0.94301813088061
H        -0.68827771914173    2.55562817954007    2.37865381055161
H         0.35508485164850    1.60835409985657    0.34956480153899
H         0.99476172552112    3.18290687384237   -0.07787061473674

