109
CSD_code = PUCPOS | q = 0 | S = 0 | Stoichiometry = C48H54N4OsS2 | MND = 6
Os       -8.47474482087375    4.21151843988116    9.52810230316805
S        -7.96190344124503    3.18468372842979   11.60024389686500
N        -6.90957232357217    5.51632067986117    9.54974749151380
N        -7.41458214121638    2.92706790830682    8.41974731731460
C        -6.89489069607966    6.75116332801229   10.12629391487718
C        -5.63198277684059    7.40302849547403    9.84500864045902
C        -4.89973352010325    6.53091976278925    9.09982523539587
C        -5.72202545345511    5.35277404362666    8.91850535816760
C        -5.35733699610313    4.23203410788916    8.18617025739678
C        -6.14185160682036    3.11158438854886    7.95366350799389
C        -5.74077587358597    1.96876020873601    7.17524882371320
C        -6.79265166147681    1.09355255879219    7.18661473258070
C        -7.83285830883466    1.70115719170479    7.97414909882273
C        -7.91464681670696    7.31461338959155   10.87013570004896
C        -5.25874503370197    8.77490597013387   10.29760231414247
C        -4.74621581169604    8.77843893613653   11.73863236181184
C        -3.51724238965244    6.69455059947293    8.56374389249042
C        -2.48696327161162    6.01214719582667    9.46641223450972
C        -4.43303170757418    1.83338375057023    6.47020636691330
C        -4.45020630203029    2.57420550854748    5.13055439477550
C        -6.91031171537156   -0.22109485494765    6.49154213901926
C        -7.73066068564068   -0.09361754398579    5.20537262345826
C        -6.80420989678796    4.27334804984539   12.36233827918384
C        -7.22066250776163    5.13145520548557   13.37381254980862
C        -6.29799676098265    5.93993622550149   14.01037796785329
C        -4.96155633190056    5.89404259470395   13.64877113085202
C        -4.54805904749920    5.03826273687619   12.64073631217718
C        -5.46238068894849    4.22680443963174   11.99866240888149
H        -4.37217805826110    4.23587662070346    7.74527082654505
H        -7.73476358784680    8.30171111081637   11.26784118354672
H        -4.48111661990588    9.17256134564245    9.64205146877980
H        -6.12608033242160    9.43454901125086   10.21882186402916
H        -4.49883406415087    9.79087420759969   12.05115923030667
H        -3.85497208421900    8.16147264778497   11.82213446809436
H        -5.49838204937211    8.37521152854125   12.41231284259454
H        -3.45757733639569    6.27037901784425    7.55861838193891
H        -3.27794079689753    7.75719519701638    8.48962963232569
H        -1.48740061894306    6.11456815382327    9.04897693946281
H        -2.71464450724231    4.95392661045099    9.57336151091146
H        -2.49766685901432    6.46527751859845   10.45482004561204
H        -3.63167445517911    2.23339450769054    7.09577843688966
H        -4.21952325061483    0.77738389223103    6.29319549633357
H        -3.48366110999613    2.49206689351463    4.63823152577512
H        -4.67898811701721    3.62708018156181    5.27942380178835
H        -5.20838490375057    2.15153780554306    4.47548242601383
H        -7.38600652777400   -0.94800641736360    7.15428947885328
H        -5.91508849958107   -0.59626316553281    6.24580329234718
H        -7.81915250223274   -1.05984897824401    4.71336102573598
H        -7.25208731943002    0.60131916930683    4.51892089011399
H        -8.72783110726817    0.27955589346863    5.42673476464832
H        -8.26386451094033    5.15554984207741   13.65099364256588
H        -6.62013771661722    6.60090994688148   14.80245357469780
H        -4.24262903872097    6.52023360945686   14.15638228676341
H        -3.50590308225401    4.99603365337188   12.36021987776100
H        -5.14977229849512    3.54757995296513   11.21875219840739
S        -9.34855373791646    5.44151713538015    7.70224393282352
C       -10.51742790303564    4.35624856575003    6.94718982148187
C       -10.08571753704263    3.39651342735492    6.03822353890398
C       -11.01010367011355    2.59761732810495    5.39312453662908
C       -12.36315551453812    2.74708676555063    5.65047843690544
C       -12.79141371978487    3.70115675061178    6.55880116336035
C       -11.87512650802567    4.51026172942643    7.20263664616004
H       -12.19680569895105    5.26314239375707    7.90673004403285
H       -13.84626612316008    3.82452398557566    6.75601278098219
H       -13.08222762763303    2.12457025308546    5.13851313933994
H       -10.67454562676538    1.86035383812947    4.67731984749702
H        -9.02924553794450    3.29323993514206    5.83765460216967
N       -10.07154756734212    2.92167250023123    9.52449929048646
C       -10.10028907085703    1.68985114515038    8.96725212203380
C       -11.36808975754231    1.05094452804830    9.24663011365605
C       -12.09379657434932    1.93874551982307    9.98115651469928
C       -11.26114121446733    3.11134719339187   10.15694090158059
C       -11.62432461891360    4.23092459886553   10.88762477154462
C       -10.84500633694734    5.35420003076120   11.14473698605767
N        -9.57802651410932    5.54498684608210   10.69550016808586
C        -9.15613411445527    6.75061341782544   11.14791713716182
C       -10.19628917608918    7.36203863265496   11.93784779481988
C       -11.25108799508357    6.49151794806062   11.93463755609293
C       -12.56254712607525    6.61945073225462   12.63401391845850
C       -12.55167843159389    5.86060277482142   13.96363812374382
H       -13.52162921154737    5.93231769405120   14.45105791915482
H       -12.31759621609001    4.81082299079960   13.80150520110431
H       -11.79918202786443    6.27717927780870   14.62912222005315
H       -13.36088366802060    6.22768001373517   11.99938276420584
H       -12.77651268127145    7.67315371996425   12.82394704987316
C       -10.07775186996736    8.67532049611661   12.63540950528381
C        -9.26349747911030    8.54666235100459   13.92488600702718
H        -9.18100657506929    9.51151442979508   14.42090912301117
H        -9.74310527117011    7.84756327987560   14.60640516564899
H        -8.26441735162171    8.17751600180885   13.70615549367072
H        -9.59685974330483    9.40106647629385   11.97502046571923
H       -11.07343803579539    9.05290898051322   12.87605087289641
H       -12.61408576924676    4.22437235709191   11.31908765474581
C       -13.47820030608424    1.78684773362963   10.51557995909288
C       -14.50144884743955    2.48178012691361    9.61486440427357
H       -15.50339300962125    2.37821653881697   10.02632156318773
H       -14.26867579012128    3.53973673406611    9.51971889210125
H       -14.48575736408110    2.03986596237506    8.62154820655016
H       -13.53466699129182    2.20695181581083   11.52252140232922
H       -13.72694176021308    0.72605314578712   10.58512564027635
C       -11.75034566351081   -0.32004674591274    8.79916999392790
C       -12.25930202697898   -0.32304167911029    7.35689448420019
H       -12.51697385577005   -1.33359312363017    7.04658496938283
H       -13.14280158207492    0.30438902055855    7.26924687251925
H       -11.50063491380070    0.06964099238439    6.68449706197560
H       -12.53202366560095   -0.71048279659957    9.45411015344498
H       -10.88749139718993   -0.98529536315736    8.88132628200788
C        -9.06357551021442    1.12349114185078    8.23931784400324
H        -9.23039377058393    0.13270364908029    7.84576657258556

