92
CSD_code = PUCPIM | q = 0 | S = 0 | Stoichiometry = C36H44F2N5O3OsP | MND = 6
Os        1.78538649171585   -0.75550005763652    3.55356649327579
P         4.09172411090484    0.90870047693786    4.93831075714704
F         5.31384953832189    1.79412884689692    4.39505967559926
F         3.22953679462506    2.19640842645652    5.39504239579463
O        -0.57075775272292   -2.34883709312630    3.30142338193010
O         3.46616600815009    0.40177236726918    3.67400893611703
O         4.49422140688645    0.09421064483707    6.07055363935282
N         0.84836961446345    0.96182513851468    2.90690152529161
N         2.38026778595097   -1.14033346261335    1.62080232044611
N         2.96366095521504   -2.30350497179063    4.21544599469290
N         1.45472763488025   -0.19268672789390    5.50011416469445
N         0.39488889824600   -1.69771753607010    3.42625823391612
C         0.27426441759779    1.90478308635692    3.69877427745542
C        -0.24388826085112    2.97214234204125    2.87607191631228
C         0.04218327829707    2.64439891525657    1.58143101185395
C         0.74182138868851    1.38192192661262    1.61835972159329
C         1.26009118284722    0.72624205093902    0.51170396538301
C         2.04251910694129   -0.41915701921152    0.51868861927951
C         2.65772212867474   -1.00808686348996   -0.64686724284108
C         3.37809023718971   -2.08333738315712   -0.20979130687407
C         3.19719718305547   -2.15045345621403    1.22074999359363
C         3.78503258977764   -3.09081183014781    2.05424476479412
C         3.69603334945274   -3.14404041747566    3.43685113109361
C         4.38729439654259   -4.09438332363707    4.27538603015180
C         4.06957438378031   -3.78232852766588    5.56570875962473
C         3.17450717437361   -2.65132248208859    5.51145907155027
C         2.64666693036390   -2.00484970336196    6.61743740395907
C         1.87260819384215   -0.85666415895198    6.61005738201560
C         1.42331814517313   -0.15631264287892    7.78851904148340
C         0.73596947703621    0.94097967666730    7.35521229084417
C         0.76646009290641    0.90602421181181    5.91289891572936
C         0.20747251161595    1.86523193985925    5.08359597453090
C        -0.89658446447114    4.20586418951187    3.40099534324095
C         0.15002889198931    5.21031637343712    3.89169611395416
C        -0.23836133677029    3.42713104461584    0.34275825391284
C         0.98659926929274    4.23598896315605   -0.09201680857479
C         2.54060311571188   -0.47252902851781   -2.03442892387930
C         3.50874324442570    0.69117366975891   -2.26356524155238
C         4.24114803254783   -3.00624840174014   -1.00287445620906
C         5.71563272242484   -2.60526031437085   -0.90659901837036
C         5.31388255808725   -5.15630311305937    3.78452473789985
C         6.70898530519390   -4.58375909755046    3.52011042385304
C         4.50967995476336   -4.46329047447120    6.81754535004946
C         3.42955363103709   -5.41770225085394    7.33426739046207
C         1.68109829868232   -0.59948893343827    9.18834781779925
C         0.72044376464624   -1.71623488007191    9.60567525738317
C         0.04924325296641    1.98683148854669    8.16675644324112
C        -1.45576389181076    1.71981544020740    8.25593845700226
H         1.07396354169046    1.17931939585870   -0.44993684339208
H         4.40244694079543   -3.83857968804984    1.58054316537728
H         2.92100509635098   -2.39670340530100    7.58384983577516
H        -0.29320852732787    2.68913803328311    5.56769160578183
H        -1.49646606027805    4.66686100229855    2.61406004898134
H        -1.56768267653721    3.94798126867052    4.22345819197530
H        -0.33462600945274    6.08562357050982    4.31851556146124
H         0.77959655692702    5.53221578265406    3.06596114744167
H         0.78977067295432    4.75868099737979    4.64593085641513
H        -1.07091293975097    4.10936770922700    0.52414722904758
H        -0.53241712336320    2.75017016222774   -0.46259777444065
H         0.77518334025002    4.78149191719304   -1.00903863630051
H         1.83726325792317    3.58077730044272   -0.26277461291583
H         1.26071819371225    4.95019630655953    0.68022470973652
H         1.51737517477757   -0.13544299967792   -2.21447207820358
H         2.76007325582092   -1.26594275184993   -2.75117343326810
H         3.39266230901621    1.08905712097623   -3.26920330718796
H         4.53601054045090    0.35771592111137   -2.14000470046947
H         3.32469952099053    1.48894063859821   -1.54824495770055
H         3.93274130418457   -2.98496525986678   -2.04966682199865
H         4.11808453525394   -4.02928226545316   -0.64043027046115
H         6.33550653173750   -3.30107400132107   -1.46757075423818
H         6.04462000122244   -2.60059758314759    0.12964673421925
H         5.86277965458622   -1.60715776782325   -1.31150372098505
H         4.91916396588184   -5.59832346445394    2.86703409840063
H         5.38521612878954   -5.94984084800119    4.53009146924301
H         7.37727363186058   -5.36203350399320    3.15814092886285
H         7.12283766737968   -4.16585908506910    4.43454230916770
H         6.66227574996223   -3.79001942180155    2.77857153743739
H         4.73467214684480   -3.71465949728085    7.57923869718672
H         5.42451724339660   -5.02560426490611    6.62490964797183
H         3.75599932332627   -5.89688529332418    8.25443463122444
H         3.22382625267062   -6.18916311318804    6.59554451724518
H         2.50427242920542   -4.88105644175798    7.52925083705250
H         1.56068143828418    0.24693060087797    9.86639105245841
H         2.71155248755640   -0.94931040965127    9.27302053224771
H         0.93703876712961   -2.04143968139876   10.62067797761352
H         0.80992827288175   -2.57029847786186    8.93861981828225
H        -0.30767875425507   -1.36376577272018    9.56811073849780
H         0.47019376311694    2.00060749722883    9.17331691196864
H         0.22127488926939    2.96900756840074    7.72202552957487
H        -1.94452678684000    2.49871811291810    8.83682056119688
H        -1.64076466753030    0.76244423131868    8.73708280052728
H        -1.90055278352340    1.69181279196072    7.26395384918566

