26
CSD_code = PUCWIU | q = 0 | S = 0 | Stoichiometry = C9H10NiS6 | MND = 4
Ni        0.41604850777021    1.28839301216148    1.77481121319858
S        -1.37406801321991    2.33036281114571    1.06806488349067
S         1.53095590909843    1.73205365439401   -0.05544785816731
S        -0.62985774576140    0.86650646258638    3.59216779380775
S         2.14358705576633    0.25602997648307    2.49987355915089
S        -0.15344578623089   -0.40036060343876    6.15512879342336
S         3.00280111244880   -1.20588954388486    4.84915810477980
C        -0.86772921908076    2.87841148272685   -0.45289898612666
C         0.39286194265915    2.62591771890422   -0.93613755353301
C         0.58935503819693    3.24878873497891   -2.28342477573334
C        -0.84752433618765    3.58568477543465   -2.72257636124249
C        -1.66455234874507    3.69527454664664   -1.42207118884134
C         0.48316379025696    0.00578938988632    4.57231379538838
C         1.72207936245892   -0.29889225962674    4.06681594261969
C         1.35806422481656   -0.90898636437100    7.04485861211530
C         2.12493207278757   -1.95164590358717    6.26650707603029
H         1.10003071944605    2.58103879903489   -2.97611061965924
H         1.19752747676255    4.15172168011694   -2.18166963162720
H        -1.24067135900519    2.76879042662932   -3.32825976199996
H        -0.89241352207377    4.49854756390398   -3.31304944051947
H         0.99834753084877   -1.31091986919314    7.99178367940318
H         1.96667515183293   -0.02405571635461    7.23235683145655
H         1.46526941686557   -2.73604229121655    5.89476511984936
H         2.91241617143016   -2.39612867102600    6.87475573021556
H        -2.68463249481853    3.32823915077174   -1.52869753410025
H        -1.71792065832209    4.72897103689313   -1.06981742338079

