59
CSD_code = PUCYET | q = -1 | S = 0 | Stoichiometry = C20H34N2OPRu(1-) | MND = 5
Ru       -1.25616749424478    7.96610859729642    3.91762499750011
H        -0.26309986167379    7.78321737587180    5.14535994154909
P        -0.95535252944910   10.14230443562974    3.45611947248647
O         0.74674744747900    7.13738845719619    1.83706950285355
N        -2.76551450734329    8.74821199415442    4.96360498584494
N        -2.47602028961281    6.29240076906734    4.11067088420753
C        -3.55268722115777    6.56254263821803    4.88997531095045
H        -4.24879385468208    5.78130619354246    5.18701223355513
C        -3.76311471446386    7.84753116211848    5.33042587029958
C        -4.89528488223052    8.28611517877024    6.07409158524421
H        -5.63676788358285    7.54908487833548    6.35623243145926
C        -5.03057701633265    9.59563971484750    6.40178857110113
H        -5.88489165415526    9.95703505379097    6.96072560343152
C        -4.02175261012070   10.50734843978120    5.99076527986548
H        -4.10899339852409   11.55924907858668    6.22877165313432
C        -2.93534343581864   10.04132107901962    5.29752366417340
C        -1.83398449358983   10.96697656732694    4.86209731929715
H        -1.09761868652156   11.03028031481440    5.67199072686435
H        -2.20483391781692   11.97339646029594    4.64415799175186
C        -2.30532363196698    4.87014922980878    3.81635587127358
C        -2.12712775129324    4.06497003734245    5.11878459349996
H        -1.31157143321167    4.50487114905933    5.68960666465552
H        -1.88819714006171    3.02574386787617    4.89610136039638
H        -3.02567513121577    4.08721011425286    5.73119272966809
C        -3.51258226361581    4.33327318137621    3.02157953706511
H        -4.43037308934732    4.37620607518931    3.60365451430052
H        -3.34052714186877    3.29804374124253    2.73010854136191
H        -3.64955735511784    4.93237004364172    2.12269807759296
C        -1.05491038262441    4.64020069696262    2.96450218686469
H        -1.14418362558191    5.15986104285358    2.01295684369459
H        -0.91933695439163    3.57607909785097    2.77094731158189
H        -0.18158141511421    5.02423239413949    3.48870253165458
C         0.70465682895080   11.10653633900981    3.48631258801510
C         1.41892924878660   10.89835102520316    2.15192834523453
H         2.47859467172574   11.14202253555975    2.24744700101820
H         1.00258585624151   11.52839390069389    1.36905670219566
H         1.33246161352654    9.85305755038547    1.85695027037086
C         1.52870981202191   10.39578478245762    4.56196025178099
H         1.57524361800966    9.32956458692955    4.33756097745283
H         1.07278248620548   10.50435881103931    5.54428507228965
H         2.53948977566434   10.80532518944576    4.60279542868096
C         0.64798522859802   12.59510512238371    3.83358626924617
H         0.19214410975692   12.75534925530955    4.80767270235049
H         0.10063011826719   13.17304467250931    3.09691133882741
H         1.66653651644392   12.98719454138693    3.87477633534231
C        -1.95103801103337   10.84381815414791    1.94256146024074
C        -3.39900670247366   10.43205486293106    2.22067518515783
H        -3.83616488876000   11.00712909012560    3.03532128382078
H        -3.43285285894850    9.37045024374294    2.49046101069195
H        -4.01696206270861   10.57590538373693    1.33187112367512
C        -1.91669334827681   12.34590890055238    1.67754098173871
H        -2.65848445206395   12.59295201873598    0.91423174136016
H        -0.94597289735677   12.66583959751632    1.30668795959097
H        -2.16140241228068   12.91438353272309    2.57286945341203
C        -1.49453096368979   10.07801307471339    0.70049138787885
H        -2.23217177636285   10.16660493748244   -0.09951297602649
H        -1.38243512962025    9.02042047661424    0.95617463332260
H        -0.54220818014700   10.43904437353619    0.32312197916411
C        -0.04342788123845    7.37951798086457    2.67636270396728

