38
CSD_code = PUCYUI | q = 0 | S = 0 | Stoichiometry = C9H18Cl2N2O3RuS3 | MND = 6
C         8.90240088990748   -0.43022881124669    5.45186086085472
C        10.01668696059560   -1.14503705922370    4.86927053192847
C        10.53925181201687   -1.14636568717311    3.59643716568634
H        10.15479001315764   -0.56193647018187    2.78019905784123
C        11.64746457599302   -1.99783856043814    3.47211167465347
H        12.19470036410419   -2.13597315589287    2.55735231721236
C        11.95485767734659   -2.63060846282174    4.64013792414217
H        12.74838676806248   -3.32903260780144    4.81671803703053
C         8.23319802385219   -1.58299757476566    9.49939060913316
H         8.29664148878413   -1.91337127563433   10.52957921581650
H         9.20213118690385   -1.30645498601836    9.09836738353235
H         7.77351288363144   -2.34833828481960    8.88154260446477
C         8.04975154880358    0.97052603607319   10.54499772292280
H         7.47846088004296    1.89358989664512   10.58918014064931
H         9.03325810076030    1.15704963164437   10.13004610752953
H         8.09384091994166    0.49505411427823   11.51731931651543
C         3.73647908712078    1.04947791009509    8.32962976658178
H         3.91876017192524    0.29951708225000    9.09440496904365
H         3.42823504037821    0.57417712735749    7.40632530172800
H         3.02651602158024    1.79006525257432    8.67712549358060
C         4.78578203300044    3.12089672952906    6.83845560261534
H         4.00951012105792    3.73217297633923    7.28341934377297
H         4.42383823016477    2.60254000672142    5.95717778698833
H         5.65372983320808    3.73311962676570    6.61311224007524
Cl        8.47979046471185    2.38440075586630    7.58513057523848
Cl        5.51343676575250   -1.05998614342499    6.62326627285621
N         7.07034847748200    1.08905420518092    5.15977657182738
H         6.19050008035509    0.74109537926173    4.75423654180595
H         7.18427961510785    2.09934774253659    5.02362384876674
N         8.17642016737537    0.39030047940134    4.64399365557895
H         8.37502673967615    0.45528530480272    3.65441894300843
O         8.63033381031777   -0.56537461670905    6.65044004436457
O         5.90363897716178   -0.46057959856765   10.03712461439346
O         5.64145636630046    2.58355853584209    9.27267768336985
Ru        7.01327990189799    0.59396169115553    7.31051803576241
S        10.90256224778952   -2.20284996647844    5.91866364848881
S         7.16208077155079   -0.11640750574181    9.40691269442277
S         5.32656098218512    1.86589028262988    8.05695569580381

