59
CSD_code = PUCZAQ | q = 0 | S = 0 | Stoichiometry = C19H34ClN2OPRu | MND = 6
Ru        8.62134976347003    3.12978560209447    5.10365292330833
H         8.12181265197171    3.53083621529145    3.71991618116690
Cl        9.20106229698483    2.09375998154000    7.21823676181244
P         8.16199944277477    5.18898636695475    6.00926532483374
N         6.77923283139305    2.71834992235471    5.75325929529207
N         8.43979154834991    1.01649894693930    4.56554544925406
H         8.62909070371668    0.67853128680360    5.52249571560206
O        11.41336570334975    3.78489018659510    4.23953717917170
C         6.90957403689990    4.61607678339982    7.24958743482250
H         7.50516830992350    4.24899464069910    8.09501364478048
H         6.23818565878536    5.40074891537459    7.60637313928302
C         6.16401348899504    3.44172851283663    6.69830769916913
C         4.91821047912959    3.07632919980395    7.18860961201008
H         4.44271789957512    3.68270319002856    7.94441536082514
C         4.30488707161095    1.92746001629651    6.71564743496249
H         3.33742258553751    1.62664560056305    7.08580478654391
C         4.97418627227226    1.15986314849345    5.77525819744904
H         4.54843615062421    0.24239439066228    5.39981205870102
C         6.20925170758223    1.58848751451039    5.31902409290227
C         7.01254797179302    0.82454504153731    4.30240234064532
H         6.73693021608867   -0.24193057776290    4.32363647824902
H         6.78772178209611    1.22158382339885    3.30302368312558
C         9.39007778519104    6.15237632828074    7.08516560273400
C        10.31773895220912    5.10818406157865    7.70822808288770
H        10.81822350326342    4.52938782231822    6.93232478156050
H         9.77807023123302    4.41508666605110    8.34967271632025
H        11.07833561726616    5.60098116507790    8.31310885084457
C        10.23736446845995    7.03779853536635    6.17060460297136
H        11.13189152053148    7.36509841550819    6.69927248279761
H         9.69730546878922    7.92519621504056    5.85104671454958
H        10.54848485291247    6.47050138706721    5.29254405656896
C         8.76133078426376    6.97076555806254    8.21299314134756
H         8.24770469114805    6.33068007465614    8.92641440657837
H         8.06476268598817    7.71838064178500    7.85049564687802
H         9.55640070866307    7.48871548664910    8.74908012537667
C         7.15452934655989    6.39938540671914    4.93946662058750
C         5.90548052041616    5.63719224226681    4.48651951975626
H         5.22040349923621    5.45318980088960    5.31217251895879
H         6.18938811367022    4.68693067309430    4.03594117233414
H         5.37343384955983    6.22027192022730    3.73571104395805
C         7.98716960150583    6.72839320697040    3.69900021838885
H         7.35208573973781    7.15964978499758    2.92663978158176
H         8.43826330632096    5.81506323959002    3.30965264990337
H         8.77703314812111    7.43941656067945    3.91829277007131
C         6.70576279543886    7.68440082314963    5.63122161076041
H         7.54373034415770    8.33834673581030    5.85375339440012
H         6.15875733827154    7.47772967265293    6.54914853772002
H         6.03644841556068    8.22668531627777    4.96315775208135
C         9.30492412734768    0.24232365346807    3.66482865559629
H         8.87167684630247   -0.76642549019398    3.54073020687655
C         9.40731228732928    0.90935602620469    2.29686013884123
H         8.44997106999373    0.91233093067436    1.78194366243359
H        10.12514611526351    0.37854430757846    1.67765997507611
H         9.73721033034805    1.94018359170760    2.42280406827094
C        10.68114359078631    0.10599073438389    4.30738541366669
H        11.09995769380219    1.09388225420279    4.49379289509824
H        11.35505347412456   -0.44092969610193    3.65356837532023
H        10.61597492962348   -0.42211077597371    5.25711285151529
C        10.34359367367766    3.49417801486818    4.56616016147745

