106
CSD_code = PUCZAP | q = 0 | S = 0 | Stoichiometry = C31H64O8P2Pd | MND = 4
Pd       12.39836445733492   10.04344538413157    9.97523975416417
P        10.40710352517160   10.62987264261754    9.17205018437337
P        11.82097735354551    9.43658327640962   12.04763328432264
O        11.73988418369478   19.55584157837395    9.79899007523099
H        10.86644267311157   19.80963343286622    9.48052223154400
O        10.89167305108823    2.99908150794805    6.50876669085618
H        11.36306748063431    2.24672174381488    6.88812149990345
O        15.69193822466547   17.44241796142209   13.36180747944893
H        16.57368578793539   17.05491136130003   13.32746824705767
O        12.31230820322935    1.43356642172653    8.61213698318466
H        13.04962447991081    1.01775670459013    9.07210081428923
O        14.16188474369987    9.39138793324087   10.83417077084141
O        15.44008240940672    7.64177197559438   11.20897661832369
O        13.18234997593266   10.57247585307577    8.06309801037377
O        13.51612745129131   12.32450404119502    9.35456834493136
C         8.97506035252100   10.35580924940008   10.31215798119831
H         8.14248362792834   10.96656997268798    9.95188292288275
H         8.67738543086066    9.30654703551966   10.24045333966622
C         9.28828030407461   10.70660633754911   11.76993760431906
H         9.88578192737512   11.62053836184082   11.79952312323088
H         8.34741201172226   10.90435157897999   12.29204535612266
C        10.02953490093687    9.59544216804028   12.51412058597604
H         9.53870754289113    8.63932076000818   12.31936885896474
H         9.98454159616288    9.77990077656886   13.59119376512878
C        10.15599363400447   12.33799640701550    8.54265728757435
H        10.82249045387596   12.43613412186209    7.67998715362320
H         9.12309572712474   12.45197281154275    8.19605164917416
C        10.52740567524321   13.39542103262109    9.58066602494330
H         9.79818675560777   13.39637182330695   10.39427414280356
H        11.51238413420430   13.14333453995368    9.98815453483327
C        10.59307316310252   14.79089160735554    8.96453868474724
H        11.27577370103518   14.77167515634980    8.11300180504805
H         9.60500123932846   15.07852221959659    8.59394587026527
C        11.08793392070062   15.82785753146017    9.97031500288557
H        10.42748420809765   15.83739289577705   10.84118762966615
H        12.08449806504963   15.54299106163553   10.31071321540799
C        11.14033346023029   17.22577712303595    9.36179967286754
H        11.79061023364250   17.22244757738664    8.48492233815301
H        10.13805371398560   17.51869756478757    9.03220126768790
C        11.66293518692309   18.26494941040543   10.35471187501554
H        11.02737056913003   18.27154029747953   11.25357442608390
H        12.68271051267777   18.01844215177091   10.65768584530968
C         9.97435388333652    9.60108194209881    7.70855109597307
H         8.89517768768886    9.61590065429876    7.52907839989010
H        10.48069769250611   10.04908420041174    6.84850846834379
C        10.50086939844823    8.18012801557412    7.91396218268573
H        11.54773401025006    8.26480947103699    8.25114888369784
H         9.92106605623251    7.67652491178417    8.69408398729717
C        10.46891586156048    7.34603753993264    6.63519083359730
H         9.43864702479745    7.23564333459259    6.28820424077914
H        11.02799029879984    7.87120396625077    5.85759376295655
C        11.08931198558667    5.96717898856650    6.84915076589519
H        10.48794529944043    5.39486727005056    7.55772904512277
H        12.09001715535067    6.08776574641483    7.27064702694304
C        11.19525344641045    5.17183712835127    5.55049569139986
H        10.20224279429421    5.03626947937958    5.11965913267479
H        11.81391123365132    5.71331477986745    4.83267288075070
C        11.80670851498845    3.79258253442767    5.78758001884276
H        12.03397568885170    3.31860982019126    4.82014038939338
H        12.74778634694769    3.89987655440014    6.34352626932123
C        12.70350248498064   10.54237698113102   13.21422997215080
H        12.24385878978492   10.50432547605475   14.20738109337960
H        13.72477992113633   10.15624503714871   13.27682229855629
C        12.73361467575716   11.96270926854113   12.64713284220267
H        13.05927901595495   11.90678207268773   11.59468137672478
H        11.73282688065297   12.40361958444034   12.68583276916810
C        13.70337587972952   12.87738866582430   13.38929312129404
H        14.69872365783057   12.43026296476963   13.37276221579431
H        13.39914823650146   12.98269402867906   14.43461009715287
C        13.75600056161768   14.25108340655040   12.72371776536746
H        14.01697000179917   14.11784710674117   11.67186345069426
H        12.76675649856337   14.71402973829198   12.76715827444071
C        14.77023742154856   15.17511765307586   13.38960964921740
H        14.53155716761198   15.28999512084088   14.44959187018806
H        15.76760253408837   14.73183130414935   13.31830379888525
C        14.78906289398125   16.55861827079713   12.73915030898320
H        15.02367636430111   16.46032421953652   11.66881498016620
H        13.80938860718105   17.03365434526749   12.83430276505937
C        12.21132423920870    7.74292734928370   12.63577729625740
H        13.29519436281688    7.62338432656727   12.55911625861225
H        11.93329045823943    7.65265944085516   13.68948675557038
C        11.50094340213061    6.70237104706263   11.76459106490708
H        10.51605522642637    6.47126299904847   12.17841078109226
H        11.34759680609996    7.13234938842629   10.76356612579326
C        12.29777093409690    5.40752509815321   11.61908760562502
H        12.50932505332543    4.99259339231354   12.60646003515422
H        13.25611967385395    5.62927587679248   11.14735194545021
C        11.52498648470389    4.38767276070910   10.78186150241484
H        10.72090791440264    3.95611580065302   11.38303513270288
H        11.06277281853833    4.89621220308819    9.93260671725182
C        12.41120843498140    3.26912692383882   10.24271573480779
H        12.98914365626023    2.82236519017133   11.05553319638542
H        13.11543749105510    3.68755697023009    9.52038037341823
C        11.57045220697046    2.19875857049756    9.54196818344909
H        11.09853181111690    1.54037900013072   10.28430419441163
H        10.78267233309974    2.67451867425027    8.95391575452334
C        14.66666360136009    8.26318511891598   10.49601898475353
C        14.22261525546495    7.68154992763824    9.14409121711784
H        14.94419666690542    6.93862611405059    8.81095396383157
H        14.14142862466145    8.47930492887269    8.40031255040378
H        13.25153408491084    7.19379583495498    9.28122992499592
C        13.69181100330730   11.71039128076817    8.29677239251699
C        14.53528285193737   12.31807467705350    7.18525658261025
H        14.47574867899362   13.40185513812733    7.22887630913300
H        14.20474705780389   11.95135340718421    6.21720083720465
H        15.57033684620882   12.01911358581683    7.33871390220310

