43
CSD_code = PUDBAR | q = 0 | S = 0 | Stoichiometry = C20H18AuO2PS | MND = 2
Au        1.50999014154473    0.99517921221611    0.86198282897183
P         1.25356642585019    2.37845474199386    2.63364090995009
S         1.71453071154370   -0.39734076156474   -0.99598149565519
O         5.11475310422524   -1.35293216711591   -0.16678760599720
O         3.90533768472231   -0.14246629613374    1.24729845689933
C         2.66386662716854    3.47204181201974    2.95149483585988
C         3.92721620904878    2.90963162815288    2.77662399976965
C         5.05590091193581    3.67474554536889    3.00275283426297
C         4.92917495233787    5.00098987996795    3.38693795857997
C         3.67301191164094    5.56349816689001    3.54420735752386
C         2.53639391327143    4.80425033350754    3.32797078677394
C        -0.17133446603487    3.49666806252294    2.55201866333886
C        -0.83100381955113    3.95804748094670    3.68752085932391
C        -1.89792788169339    4.82741651528066    3.55263546059534
C        -2.30802166377712    5.23882037230241    2.29397608923860
C        -1.65484580080165    4.77722219967383    1.16233285863076
C        -0.58994386546276    3.90438393678946    1.28930680799682
C         1.00757289574917    1.51069501807020    4.20599517901750
C         1.88327595852875    1.59285323851476    5.28149839830182
C         1.63796985879093    0.84612469721382    6.42124380437525
C         0.53017779734722    0.01814041504610    6.49008226512515
C        -0.33878332223000   -0.07376265457580    5.41277723847638
C        -0.09805753631403    0.66377988662727    4.27074700852585
C         2.78337955176571   -1.67215532836731   -0.23295430664488
C         3.95570140443850   -0.98122029457305    0.37056957706202
H         5.84972580347371   -0.83774976212831    0.20541066090204
H         4.00638082500627    1.87826570295572    2.45899808395401
H         6.03643603688525    3.24082277518778    2.87343114760946
H         5.81163445176166    5.59984795305721    3.55744974870662
H         3.57700864408272    6.59933946910611    3.83543591810778
H         1.55602298981097    5.24431943409019    3.44734498436084
H        -0.50861567822868    3.63342981536035    4.66779606576397
H        -2.41155006971704    5.18610610301186    4.43268246386957
H        -3.14234740853057    5.91730205478195    2.19573982342580
H        -1.97910438176547    5.09279740295529    0.18198423925172
H        -0.07693410514416    3.52203362235910    0.41549477781934
H         2.74958957055504    2.23719268251395    5.22684924241325
H         2.31694353203498    0.91094056696281    7.25891093094230
H         0.34515225184516   -0.56175282044036    7.38205692238866
H        -1.19859438855577   -0.72525477255164    5.46404739487553
H        -0.76024985121325    0.59536962348407    3.41613949446079
H         2.20316191529962   -2.19213690139030    0.53087376497412
H         3.10303815835801   -2.35773859008603   -1.01473643412206

