155
CSD_code = PUDDUO | q = 0 | S = 0 | Stoichiometry = C52H74Br4CdN4O12P4S4 | MND = 6
Cd        6.17601552876843   -0.00000155722020   -0.00000260787512
C         2.75559751724885    2.40102199481247    1.54218411490039
C         3.40851726751508    1.56176118087251    0.52781743607897
C         1.87751874449883    3.41132242593167    1.15388746971400
H         1.66991704854615    3.54652101487298    0.10457844890816
C         1.28260481444132    4.22543845347081    2.09745230559187
H         0.59849950789452    5.00568533357121    1.80006487884180
C         1.57797004325833    4.03187558832246    3.43727731572173
C         2.43871433841648    3.02715676825277    3.84813108126953
H         2.65135839002163    2.88980535463495    4.89737900472139
C         3.01948909203205    2.21175895116286    2.89704083298269
H         3.68707655715982    1.41593659538749    3.19175512073174
C         1.64216886594962    0.00118271995931   -1.90783322825419
H         1.52133496255240    0.13822845455632   -0.82430161804412
C         0.99709972660204    1.16622075371828   -2.63937666531276
H         1.44630541830494    2.09903269177776   -2.30925823374987
H        -0.07053366075453    1.18358723520703   -2.43516928866173
H         1.16071963630672    1.06508521020898   -3.70967751514311
C         1.05115702481518   -1.33721729899250   -2.32641607490258
H         1.63344210428016   -2.14692648298238   -1.89633389678082
H         1.07265271452501   -1.43029445200143   -3.40901036688966
H         0.02347249799823   -1.41051302973017   -1.98167113696338
C         4.85031298266575    2.95465141850010   -3.64497440538192
H         5.73530266144332    2.35721275735559   -3.89972103895494
C         4.30830766950220    3.65845707766657   -4.88159689261557
H         3.97286872603909    2.92945831448445   -5.61205541132654
H         5.08010496103664    4.28008712268453   -5.32618299679481
H         3.46132474574585    4.28192041952375   -4.60810418776043
C         5.21755903649450    3.94108179388206   -2.54857128416819
H         5.58254433382833    3.39613547474324   -1.68060918844590
H         4.33907694601033    4.51362151745570   -2.26036395757769
H         5.99128378639232    4.61822298183560   -2.90180295767976
N         3.50755911056782    2.05154276447909   -0.66959609143145
O         5.43377326765332    0.56983041047700   -1.94745982842547
O         3.82795202620871    2.05394429202668   -3.20830439130202
O         3.04761477270171   -0.06816351807340   -2.18565826071716
P         4.04767962229759    1.14019545991036   -1.92599685354757
S         3.89459401402207   -0.00213025292215    0.99201349262860
Br        0.79535326284432    5.17751631441616    4.73824364672052
C         8.17203469174923    1.42620878341588    4.85379353408254
C         8.11543275403788    2.38170761741045    3.74810932370772
C         7.13379254350639    0.52261665476658    5.09311584772855
H         6.24827277960416    0.52716082653116    4.47621970655616
C         7.20914941813041   -0.36697656385177    6.14626327557172
H         6.40120690635982   -1.05601689268471    6.34064225455460
C         8.33315964560193   -0.36745598286689    6.95637007527275
C         9.37314906192685    0.52281583613922    6.74309871405542
H        10.23839570198080    0.51393198531695    7.38807366376983
C         9.28206300002413    1.42029223257080    5.69985421580031
H        10.07171027563835    2.13544214496913    5.52598696862527
C         5.50792325465887    4.70307362690242    2.12853678683381
H         5.04861309600479    3.77550717403683    2.49269759527520
C         4.64754338002207    5.29467726344903    1.02251963467620
H         4.45360338381191    4.53882165450455    0.26640718226512
H         5.16722463834116    6.13427566180419    0.56706867923348
H         3.70227475584164    5.63939031373633    1.43186732837485
C         5.71311251929535    5.67113268206895    3.28470378886153
H         6.38745445324281    5.24083604629171    4.02052068099084
H         4.76032777528961    5.89070159217305    3.75837807849580
H         6.15320594250117    6.59402127053456    2.91699946494591
C         8.92260035000043    3.36940178264331   -0.65481362250056
H         8.24132680789620    2.77339953616924   -1.27548939029166
C        10.36392662782769    2.98925808379081   -0.95420621897230
H        10.50127480967816    1.92222331778261   -0.80625770845514
H        11.03485273910670    3.53490279597818   -0.29575300234506
H        10.59698766990013    3.23213864264821   -1.98677765340323
C         8.66519494547100    4.85170605677131   -0.87121431184254
H         7.62090585964337    5.08083022418171   -0.67816777145939
H         8.90951957693182    5.12177210775940   -1.89540090951663
H         9.28089167801160    5.43267911925818   -0.18868134102224
N         7.28647314244047    2.07570735445335    2.71528834464065
H         7.02962362078036    1.08955203216941    2.60575760708580
O         6.25632924582886    2.21190932466577    0.37023065528444
O         6.79990811666797    4.39538949142906    1.58508477541697
P         7.21434679760349    2.90477754894361    1.26347307806325
S         8.95723780467479    3.78331491205496    3.76796997078797
Br        8.44403143059420   -1.60742156446510    8.39239872861228
O         8.68249799217960    3.02512673900582    0.72618579576384
C         9.59637827151452   -2.40102757077113   -1.54218045454615
C         8.94349556292308   -1.56176831062759   -0.52778953060550
C        10.47448785561299   -3.41131408945522   -1.15392096318650
H        10.68213230547419   -3.54651463568760   -0.10462031975340
C        11.06937052570779   -4.22542428449329   -2.09751153424040
H        11.75349597863939   -5.00566422258694   -1.80015207841452
C        10.77393878065457   -4.03187088909752   -3.43732267836936
C         9.91317990410983   -3.02714947615575   -3.84814223223519
H         9.70048698427152   -2.88980489566680   -4.89738132768744
C         9.33243535722358   -2.21175895508077   -2.89702736914682
H         8.66482745677125   -1.41594146428720   -3.19170990141938
C        10.70984495002190   -0.00121103371203    1.90784471602496
H        10.83066685845245   -0.13824513821176    0.82430974824041
C        11.35492424976541   -1.16625748768032    2.63936754805337
H        10.90571889376854   -2.09906694461411    2.30924127662209
H        12.42255594935011   -1.18361929091232    2.43514931194666
H        11.19131454762772   -1.06513625474493    3.70967214103703
C        11.30086070891538    1.33718773830891    2.32642818819842
H        10.71858537422346    2.14689929190488    1.89633645076396
H        11.27935490548635    1.43026873000312    3.40902253086184
H        12.32854876602047    1.41047413447270    1.98169300181037
C         7.50165739251902   -2.95462645491642    3.64502961016763
H         6.61668336377284   -2.35716100707649    3.89979488893857
C         8.04368867977454   -3.65847532822113    4.88161788984235
H         8.37913694772558   -2.92948011525979    5.61206715970484
H         7.27189702540540   -4.28009926819586    5.32621637697775
H         8.89066986612112   -4.28193968510385    4.60811648462170
C         7.13438847960658   -3.94107175330356    2.54863437480801
H         6.76941195347430   -3.39611062182098    1.68068159855188
H         8.01285820700920   -4.51365582349460    2.26039732544091
H         6.36062962440232   -4.61820830814799    2.90186436501064
N         8.84444509569064   -2.05156504964057    0.66961726603521
O         6.91823907813520   -0.56983600594638    1.94747349394968
O         8.52404450150381   -2.05396420081544    3.20832745674078
O         9.30440227409465    0.06813786522316    2.18568467279925
P         8.30432740981292   -1.14021506596567    1.92601774796771
S         8.45742644023087    0.00213276312681   -0.99196043435155
Br       11.55652660683477   -5.17749334911970   -4.73832344086810
C         4.18001150285890   -1.42618332719189   -4.85380685506727
C         4.23660304755699   -2.38169083202249   -3.74812978905099
C         5.21825242232353   -0.52258454613074   -5.09311027260796
H         6.10376665581412   -0.52713075829774   -4.47620628660307
C         5.14290339403175    0.36701789026452   -6.14625068038532
H         5.95084722421151    1.05606018847846   -6.34061695699734
C         4.01890240783659    0.36749963033650   -6.95637032123221
C         2.97891464574854   -0.52277895153431   -6.74311835107301
H         2.11367549366481   -0.51389371143616   -7.38810334030737
C         3.06999247303301   -1.42026336721318   -5.69987999763126
H         2.28034504381546   -2.13541631443052   -5.52602581895392
C         6.84406118786251   -4.70310308300850   -2.12855664668578
H         7.30335918430211   -3.77555622357863   -2.49278347643171
C         7.70447003444483   -5.29464215851324   -1.02252719601916
H         7.89842387187703   -4.53874565197180   -0.26645886800096
H         7.18480499985395   -6.13421937280027   -0.56701872961670
H         8.64973047342340   -5.63937226947772   -1.43187917583617
C         6.63884029395595   -5.67122823536510   -3.28466315270594
H         5.96447043186927   -5.24097675230951   -4.02048104517869
H         7.59161025514746   -5.89081716213554   -3.75835784509410
H         6.19876579767561   -6.59409944231157   -2.91689229804941
C         3.42940406867360   -3.36938244792572    0.65479285221903
H         4.11067273143412   -2.77337980116752    1.27547373999839
C         1.98807541845043   -2.98924044306260    0.95417559260371
H         1.85072343441927   -1.92220769449598    0.80621666885217
H         1.31715377689384   -3.53489427142683    0.29572533412477
H         1.75501102034436   -3.23211211005658    1.98674825127532
C         3.68680867434969   -4.85168651024653    0.87119661011498
H         4.73109779407464   -5.08081287433070    0.67815312663521
H         3.44248236490678   -5.12174825189201    1.89538388747044
H         3.07111227212231   -5.43266205800911    0.18866545547223
N         5.06556255067379   -2.07570555031187   -2.71530415776450
H         5.32242029526047   -1.08955347623819   -2.60576668056642
O         6.09569112900585   -2.21190958736774   -0.37024314840879
O         5.55208937085711   -4.39539180736208   -1.58508920401466
P         5.13767087816966   -2.90477320788848   -1.26348611050026
S         3.39478686767708   -3.78329159495668   -3.76800209080503
Br        3.90804453602482    1.60747430841827   -8.39239189727862
O         3.66951558404207   -3.02510539995364   -0.72620508182041

