107
CSD_code = PUDNAE | q = 0 | S = 0 | Stoichiometry = C50H45N3P4S4Ti | MND = 5
Ti        4.05710186182290    3.47298637057000    3.52310681245886
S         5.52311502338835    3.09330904738612    1.63398274609059
S         4.14500768198702    1.14984810893007    4.00342992802409
S         3.31198230136181    3.98876386139496    5.94833650824152
S         3.81318607302397    6.02669650872624    3.16027144298496
P         3.92785000245332    2.52255034673129    0.54103911557399
P         2.61328481668977    1.12874275135324    2.66566479743814
P         5.29114200399053    3.89428205090204    5.93999550261351
P         5.66121802543726    5.76494134861402    3.81981450578686
N         2.95456554368129    1.36106976376017    1.07217900387079
N         5.94695272662389    4.30180292252301    4.49807717240500
N         2.50503524334898    3.17880996748414    2.84516209728518
C         4.67662322599780    1.77683771342279   -0.93624478837843
C         5.03565288472582    0.43691546610776   -0.86719495441511
H         4.81584858514384   -0.11849665552295    0.03473639632828
C         5.65657669970589   -0.16585878739802   -1.94509132653599
H         5.93117319916787   -1.20946878377508   -1.89500937082826
C         5.92712400490267    0.57033315568797   -3.08767037381003
H         6.40980885282613    0.09949532247776   -3.93181406016895
C         5.58383946570570    1.91108555028613   -3.14931793469503
H         5.80080729887086    2.48513091684876   -4.03868685203101
C         4.96226199728073    2.51930782830188   -2.07322193047802
H         4.69318521123213    3.56620498114823   -2.11465870489576
C         3.08741722701786    3.99793403218873   -0.11906463846382
C         3.66897049452861    5.25726309349207   -0.08261619440879
H         4.64182228574846    5.38739471556763    0.37688171961712
C         2.99952092610634    6.33129628849186   -0.64297069616935
H         3.44120570062054    7.31625178814151   -0.60792885123181
C         1.76667021538532    6.14286691734415   -1.24606462441571
H         1.24626323740879    6.98454341449629   -1.67914091356164
C         1.19934097232353    4.87852431499451   -1.30208644913887
H         0.24275215812008    4.73536473970624   -1.78291831166106
C         1.85957229973218    3.80229535672310   -0.73996468681982
H         1.44004034808751    2.80553344687110   -0.76294431697478
C         0.93554719422110    1.15486629345712    3.41154649541745
C        -0.15555520760496    0.78767466711231    2.63709282282821
H        -0.01101835402091    0.58824379513308    1.58351254725836
C        -1.40192407485779    0.67461818854300    3.22447787208313
H        -2.25810356642187    0.40143893318676    2.62460594670734
C        -1.54917527670854    0.89508809351546    4.58530553052104
H        -2.52125976161304    0.79006782107250    5.04477129536800
C        -0.45374432240570    1.24342756442074    5.35782346043001
H        -0.56911559669518    1.41115991915955    6.41895369711483
C         0.79302026459520    1.38449315560321    4.77111664371252
H         1.65789656741456    1.67810942919176    5.35764023933630
C         2.48880137389363   -0.73675965733605    2.51140219277782
C         2.33964540224697   -1.39062757581430    1.29656575163540
H         2.35272326398060   -0.81679009153633    0.38175134488636
C         2.18453026159753   -2.76544682143750    1.25066859625287
H         2.07499360798610   -3.26135897704875    0.29593935601067
C         2.16801118744964   -3.50365985688973    2.42060119894295
H         2.04799925326976   -4.57719877009778    2.38429576544753
C         2.30297933940082   -2.85942282281009    3.63982518545675
H         2.28739069117241   -3.42903627963546    4.55847797022753
C         2.45381644555269   -1.48719967218583    3.68177463848203
H         2.56071241232531   -0.98108626588898    4.63312147170189
C         5.95651489044297    2.24108665347209    6.26219845387383
C         6.84509711583013    1.61068985992777    5.40041856695024
H         7.14821590325774    2.09728281152622    4.48085197419407
C         7.31068527178816    0.34853141951005    5.72090332125085
H         7.99360629485590   -0.15552173129324    5.05340355885297
C         6.89227140199457   -0.27351727960182    6.88604970415890
H         7.25323263999619   -1.26310516305976    7.12457765181761
C         6.00579323052614    0.36020352292256    7.74314410298981
H         5.67753611041863   -0.13210161298604    8.64663032479279
C         5.53588001199004    1.62168362712150    7.43300851126140
H         4.83222168401110    2.13644299582966    8.07735924748563
C         5.98760768536911    4.90231835414224    7.28189585523388
C         5.19276183418176    5.73426360116897    8.05454285123317
H         4.12760820276741    5.77369594017800    7.86753569153864
C         5.77571385268969    6.49123008750911    9.05525380224221
H         5.16355864516724    7.14117090973626    9.66252372798814
C         7.14013816079084    6.41302742245419    9.27847629221842
H         7.59143180887592    7.00411705332143   10.06158010648362
C         7.93107878489395    5.57671034621346    8.50519532586272
H         8.99409179048078    5.51598652044183    8.68645181693099
C         7.35638726514003    4.81795150607227    7.50459285632284
H         7.95312829335690    4.15588477487162    6.89010908995918
C         6.09402873959005    7.08499202452180    4.99326372861739
C         5.10514080214871    7.87606208803867    5.55889956624649
H         4.07394006431900    7.73037904785452    5.26240384032014
C         5.45462948891805    8.84143181561946    6.48599700885557
H         4.69029755507090    9.46217958574417    6.92909419821672
C         6.78188293815327    9.00999026860726    6.84349775992554
H         7.05280010256317    9.76410835277966    7.56745109964286
C         7.76718808836681    8.21749045290409    6.27502887254362
H         8.80110233204944    8.35394779476101    6.55571624626243
C         7.42677275975376    7.25266558372420    5.34682414974213
H         8.18225861412504    6.62613648890064    4.89076128484270
C         6.88380825501393    5.90768531444946    2.49111692481307
C         7.98429783757910    5.06696668238669    2.39865641558921
H         8.12154349714671    4.28212082259747    3.12892913930583
C         8.87601772419365    5.23242372012658    1.35504896425387
H         9.72856906491391    4.57526980099266    1.26848781690749
C         8.67248686209303    6.23209463616737    0.41720016476582
H         9.36849172515896    6.35100668308915   -0.40009770842915
C         7.57793794962951    7.07667993744365    0.51825412667388
H         7.42193477091305    7.85352583971947   -0.21587434362619
C         6.68062921645273    6.91675353185175    1.55738615365010
H         5.81005413625758    7.55506519715366    1.65391682627965
C         1.32914394051092    3.89469648178533    2.48946647870142
H         0.62586308753161    3.23730340648780    1.95408326981508
H         1.60335946252218    4.72398589685930    1.81583237708135
C         0.62806840744770    4.51523862833268    3.70564090658576
H        -0.23290893368403    5.08700220115050    3.36757635216495
H         1.31822362370876    5.18244840575139    4.22424819951223
H         0.29708730954166    3.74405875702492    4.39674955490954

