32
CSD_code = PUDVUH | q = 0 | S = 0 | Stoichiometry = C14H9N2O6Re | MND = 6
Re        2.81271636470200    1.50948551920754    1.95049287187973
O         3.44543944519899    3.12846216984013    3.24373589228082
O         2.59238576229802    4.50147444131653    4.77314884665886
O         1.38013136509970   -0.77713699002659    0.44406504933186
O         3.73655095873555    2.97017791580986   -0.61140205726322
O         5.47984699524145   -0.03257016980622    2.22172804590447
O         0.66132839431832    0.82955722565056    7.80777466918557
H         1.34305422163177    1.03733203730127    8.46089796866170
N         1.06284731448798    2.80360220675351    2.08879799633604
N         2.12321545782026    0.82771747637140    3.94622236122356
C         2.52801101867547    3.82183575520735    3.76160805995993
C         1.18031274937372    3.75899825628749    3.01364789767252
C         0.16192128597263    4.65663920769063    3.29823071060949
H         0.33296164018098    5.39237453812316    4.06871466136692
C        -1.01982281501623    4.57265266024764    2.58627839436332
H        -1.83164690017462    5.25858104618836    2.77602415459284
C        -1.13638675722894    3.58532112824100    1.61666586014880
H        -2.03618713435351    3.48254673992603    1.03116372001594
C        -0.07675405717969    2.72310386378708    1.40330641800042
H        -0.13534489640082    1.94115354634968    0.65649693889762
C         1.95431049186082    0.06075027404003    0.98506583265687
C         3.40055021326156    2.39021620352210    0.31441682006807
C         4.48136850971859    0.50723963779191    2.08568272841770
C         0.83757755738151    0.58976648670339    4.21462526839021
H         0.19165862341947    0.40413814923463    3.36513438755807
C         0.31790426070520    0.57102855305207    5.48898468490551
H        -0.72912069129884    0.38780126139862    5.66380331762720
C         1.17016924711686    0.81401266684855    6.56917756416658
C         2.52096432897658    1.01512110033459    6.29172251105982
H         3.23039188462847    1.19181166986877    7.08627392600036
C         2.94525127889377    1.01190594079840    4.97992209039891
H         3.98849388194468    1.18419948194095    4.75019240892245

