31
CSD_code = PUDVIV | q = 0 | S = 0 | Stoichiometry = C14H9N2O5Re | MND = 6
Re        1.19905754688590    9.94373575136139    1.45518992230480
O        -0.20337767993803    8.96531045894665    2.77948287352815
O        -0.29177520774588    7.38335566966861    4.34113178191049
O        -0.33425733570907   12.63024117287167    1.46676564264919
O         3.63299847806742   11.07634016013261   -0.07629551316958
O        -0.26287726259912    8.94189347707591   -1.07752597609101
N         2.05019542713132    7.95849542654969    1.76570427180781
N         2.08107000223419   10.35738380722742    3.43884431904416
C         3.10476434054413    7.41388600918992    1.15972886844427
H         3.59624757995960    8.02058704886664    0.40934598155559
C         3.55786786554634    6.14129492722443    1.45419421263713
H         4.41220057306212    5.74299382977726    0.93022569556877
C         2.89824025183113    5.39620526102026    2.42294120181384
H         3.22968628770891    4.39973898500370    2.67346649922533
C         1.80584818807181    5.96113057389164    3.05372041012575
H         1.23937030976740    5.45191602350309    3.81797186051393
C         1.41008787006599    7.24023162579934    2.69108531690182
C         0.18271804584328    7.90711181933976    3.34751530720616
C         1.26500037488912   10.71957189598782    4.42815379033662
H         0.25376237705780   10.98994634987046    4.15292426952871
C         1.65592478875337   10.73701546160502    5.75585394683759
H         0.94911165930953   11.02626699280785    6.51659523424098
C         2.95081023398578   10.36901352394145    6.07957257087893
H         3.28521464961067   10.35977874122220    7.10570597217720
C         3.80908738111489   10.01585320887232    5.04972144384789
H         4.83069102983833    9.73065873823952    5.24544526041644
C         3.33350484456626   10.02555888781195    3.75145606348769
H         3.98614565776736    9.75943835186126    2.92845958712267
C         0.25950447409170   11.65439812120755    1.42817266640410
C         2.69863540020066   10.68538531007331    0.47072288427302
C         0.29434184808604    9.34796238904718   -0.16647636552890

