33
CSD_code = PUDWOC | q = 0 | S = 0 | Stoichiometry = C14H10N3O5Re | MND = 6
Re        3.92357524784070    3.70847986946107    8.57794027482937
O         4.44886537442513    1.91104230731619    9.67726407081765
O         3.73139543958861   -0.17810846150229    9.95490109751258
O         2.64040362298290    5.95173227057502    6.88356909447053
O         6.66058477085240    3.82496408284042    7.14599814854588
O         4.84169396511093    5.62559239006924   10.82489710697027
N         3.29001279321936    2.07635194801795    7.27832495090442
N         2.04423219865276    3.23881916083696    9.64369668391812
N        -1.06165348871279    1.23619589515538   11.55118131128877
H        -1.83347714856844    0.88468159439301   11.01260310286336
H        -0.90021582846446    0.83056409137625   12.45620219919613
C         3.88877837049065    0.84459227593159    9.30727095222940
C         3.33859416383044    0.87852330925987    7.86503923573207
C         2.93177333886784   -0.28494570927126    7.22842409592540
H         2.99430284375955   -1.21229177745588    7.77658944649596
C         2.47044397545429   -0.20847449669102    5.92790289103822
H         2.15250654920348   -1.09428640739379    5.39861152481749
C         2.43008503542697    1.03732399310767    5.31545451457615
H         2.08341307252639    1.14844841582626    4.30021613079683
C         2.84420822600675    2.14947446152257    6.02485057556145
H         2.82397570935095    3.13549876941622    5.57749881382617
C         3.15033579825924    5.14727801078003    7.53086229510284
C         5.64463501744931    3.82575009490057    7.67078691081445
C         4.49764346233611    4.95277544974181    9.96638906595417
C         2.12850874880187    2.88547004043630   10.93117891263823
H         3.04975288059138    3.13169187316784   11.44244566827113
C         1.13040535214430    2.22211715211559   11.60161177648818
H         1.26501504527000    1.94926196720768   12.63612320418992
C        -0.05024613955486    1.88202788968484   10.92783793413606
C        -0.15032919322136    2.29568479213953    9.59170413087402
H        -1.04226730628536    2.08719700638747    9.02101218172092
C         0.90326617990980    2.95797101749447    9.00877615785536
H         0.83088192245709    3.28199672315270    7.97723553964337

