62
CSD_code = PUDYET | q = 1 | S = 0 | Stoichiometry = C31H18F5N4O3Zn(1+) | MND = 6
Zn        7.86228117365520    8.44048172067727   10.56302349781521
N         9.51604950198595    7.13549053042663   10.73569340601411
N         8.63105613032783    8.55750517282356    8.62573220016433
N         6.26511127144915    7.15304478394649   10.16168071837361
N         7.13218627349263    8.19814524031380   12.48018499073081
C         9.94459570155430    6.48583111881322   11.79574268377039
H         9.19726485580256    6.21486042894750   12.52833561567557
C        11.28597255608396    6.15064975695787   11.99817532598784
H        11.57863818667515    5.62679146973916   12.89360461852047
C        12.21382914887192    6.51096810973309   11.05125501407323
H        13.26146932547487    6.28160234800132   11.17725697067330
C        11.78477439615521    7.19582691966755    9.90158075422658
C        10.40797373591965    7.48986512495016    9.79507225470290
C         9.93296959288484    8.22545514730542    8.65981172375347
C        12.67434188869737    7.60746194483329    8.86665853449039
H        13.72156104289347    7.36659585866671    8.97007753632836
C        12.21882864212241    8.27523965369501    7.77931959966310
H        12.89266080701588    8.58117868086431    6.99332104638429
C        10.83886774595470    8.60734191818568    7.64744067943881
C        10.32959617373029    9.34192790742562    6.56250271819339
H        10.99535850032349    9.66329856819503    5.77600025362015
C         8.99316954576267    9.65821915422415    6.54002292126381
H         8.57015187892568   10.23324638821461    5.73298026669582
C         8.18089650691844    9.25257284947336    7.60158716576260
H         7.13242126485054    9.51282514095282    7.62577453944724
C         5.85152271606354    6.65922298049474    9.01591824523515
H         6.46273879744145    6.87429252595021    8.15208257637869
C         4.68872883163207    5.89242124964580    8.89502181616258
H         4.39444631867235    5.51623053784161    7.92858064699462
C         3.93794212763508    5.63190965117230   10.01641900178116
H         3.03410075755153    5.04390721283541    9.96102826877552
C         4.36026110036932    6.14385601968428   11.25562975961033
C         5.54473002830122    6.91221317492465   11.26872604459111
C         6.01101092169290    7.46132313062608   12.50730352525439
C         3.65436007707134    5.92275136047549   12.47412697654085
H         2.75064278347543    5.33386309289015   12.43861455632735
C         4.10334693093623    6.43379507780381   13.64659416016330
H         3.56700979127310    6.26050174830994   14.56697432960639
C         5.29358887457661    7.21601432847386   13.69763292804739
C         5.80668266580054    7.77209126924151   14.88353040356744
H         5.28773783114950    7.60914383679556   15.81636057748933
C         6.96276563079981    8.51439785326139   14.83209605730690
H         7.38358662044983    8.95193060641643   15.72289542634909
C         7.59791312823598    8.70672471430052   13.60039457669464
H         8.50603321030032    9.28609992305974   13.51435942014585
C         9.63241846359775   10.68869887358507   10.43412274515378
C        11.15304276387287   10.84916089659296   10.42495596890497
C        11.92506382317328   10.41306070761114   11.49857051338182
C        13.31518428992891   10.43382830006479   11.45037580752029
C        13.96244405494132   10.88910577867210   10.30515140473443
C        13.20798161479692   11.32478827902923    9.22047776856088
C        11.81722383696013   11.30701174782793    9.29105035446693
F        11.34744582553266    9.94704386665500   12.60687173501014
F        14.02696799264932    9.98362230370325   12.48485553281166
F        15.28944367387527   10.87740752106123   10.23788135790715
F        13.81477147088165   11.72151123615169    8.10195146423445
F        11.13486419322140   11.68609717875401    8.21269612749716
O         6.64734257068441   10.17172793037095   10.08359381123972
H         6.13845940930267   10.64351651065240   10.74871382661735
H         7.39772515301359   10.79177740481605    9.84954543670415
O         9.21479031050687    9.76688949424157   11.18135688241585
O         8.93975556210859   11.39663573898098    9.70820493001199

