94
CSD_code = PUFHIH | q = 0 | S = 0 | Stoichiometry = C39H37B10NiO3PS3 | MND = 7
Ni      -18.32963899131991   -2.65154239972532   -5.38265884272626
S       -20.59014569893631   -2.37457554314312   -4.12046957241533
S       -17.49698048959995   -0.33098341782035   -4.11225693707240
S       -18.89655492608270   -1.49658603268328   -7.38337268429509
P       -14.20228599898313   -3.60480348949263   -7.04722981352257
O       -19.61174959668209   -4.70434009803523   -3.43914913158184
O       -17.63193165396895   -2.40172272904176   -2.56024894269685
O       -17.29240294169456   -3.42241751640179   -8.04433070291424
C       -20.59041824182447   -3.86161315779677   -3.36251860430077
C       -17.66980813971051   -1.09898152046036   -2.64504891302609
C       -18.06320359772700   -2.47601062594904   -8.46372224235423
C       -21.74155401306861   -4.28235782235688   -2.55707248112610
C       -22.83402556149710   -3.43858035669332   -2.35908813524172
C       -23.90832060587094   -3.85797628067558   -1.60003178471526
C       -23.90986366863165   -5.12100873567718   -1.02864389789653
C       -22.82803170716650   -5.96588976931979   -1.21996943128714
C       -21.74979347872306   -5.55315829464727   -1.97731808400192
C       -17.89174966598161   -0.36254373052482   -1.40701974537611
C       -18.11061395220889   -1.05727621839046   -0.21438257560291
C       -18.33625339385786   -0.36705063599640    0.95954256418909
C       -18.34314790849682    1.01904622163767    0.96320930828030
C       -18.12574700272908    1.71510908096483   -0.21626835145436
C       -17.90372997587369    1.03311942854227   -1.39506897875248
C       -18.18653364156705   -2.28651119653731   -9.90483943754996
C       -18.64087745144167   -1.07987955037094  -10.43681493135258
C       -18.76972128856766   -0.92933024462547  -11.80280863842989
C       -18.45787679151892   -1.97864206883841  -12.65406839794970
C       -18.01493833751383   -3.18317283275631  -12.13169819141330
C       -17.87392140590138   -3.33888536127198  -10.76716327183263
C       -13.90037321889797   -1.81931903976437   -6.80994309597958
C       -14.98739578828164   -0.98006352927259   -6.58148890100575
C       -14.79815304411706    0.37702719016360   -6.39708374592603
C       -13.51927292627237    0.90844099214636   -6.43468991229737
C       -12.43239856261832    0.07943975421290   -6.66103334336241
C       -12.61925181339920   -1.27870491531235   -6.84924959335255
C       -14.43977140638613   -3.77919937304900   -8.84510566212232
C       -14.54052897225498   -2.68618012675156   -9.69642533004501
C       -14.70760177814379   -2.88022893643083  -11.05651545805834
C       -14.77374116327739   -4.16280757621045  -11.57342001524495
C       -14.69519628738179   -5.25680444881342  -10.72561446550001
C       -14.53402001245371   -5.06703673937230   -9.36614036805200
C       -12.56057551356343   -4.36262626525053   -6.77569688145349
C       -11.67606099238402   -4.61831073586906   -7.81935464386383
C       -10.44407634767169   -5.19324199969579   -7.56287258559084
C       -10.08288744366246   -5.51752434788834   -6.26561227639941
C       -10.95805003808041   -5.26292413993430   -5.22221337634863
C       -12.19098091248090   -4.68890154551452   -5.47416447257821
B       -17.47958585944537   -5.92104102740958   -4.74533480246289
B       -18.38058592347526   -4.51477290935594   -4.18394003569929
B       -18.35383356904893   -4.84062207590848   -5.90840376161469
B       -16.75619639107381   -5.53475914893088   -6.28621660522310
B       -15.75943080680423   -5.41406395836493   -4.82699066432423
B       -16.77456373334464   -4.90310509074313   -3.46355980002261
B       -17.17438969690772   -3.84063718920992   -6.67300848834481
B       -15.67266511272855   -4.12930428141778   -5.99743872578778
B       -15.63446116879489   -3.71991430617103   -4.25041496391673
B       -17.34188230796855   -3.25198104900460   -3.66734763512402
H       -17.86442930762587   -7.00756866738316   -4.51257180462707
H       -19.35713331672694   -5.15687534385319   -6.44738681494503
H       -16.59867118958335   -6.28264247869253   -7.18072162815872
H       -14.84808801385015   -6.13409243233897   -4.62029031397017
H       -16.64003376426227   -5.28596791769104   -2.35965285127383
H       -14.66587450948247   -3.34616073899379   -3.68308973833895
H       -16.36546461028553   -2.66512693480510   -4.38436865998440
H       -22.82666242689768   -2.45715245781967   -2.80762851834448
H       -24.75058275302172   -3.19809284525857   -1.45258831296105
H       -24.75258377057149   -5.44637572163453   -0.43636241712539
H       -22.82713934118294   -6.95125569391229   -0.77705009912492
H       -20.90478336821698   -6.20652807557580   -2.13309702489965
H       -18.10755003011704   -2.13677180751112   -0.22468682544920
H       -18.50898928529360   -0.91074487875931    1.87671062005539
H       -18.52054232193731    1.55606733902666    1.88329075387350
H       -18.13376061875237    2.79501539003960   -0.21463901676647
H       -17.73987711735929    1.56657480259586   -2.31874351335969
H       -18.88703746968799   -0.27224498336457   -9.76491205461651
H       -19.11791692076806    0.00884450508223  -12.20899627045475
H       -18.56586265755498   -1.85897850179267  -13.72209417301585
H       -17.78367181980394   -4.00631670902379  -12.79178787858708
H       -17.53730609108562   -4.27664226427540  -10.35159983450338
H       -15.99369697637133   -1.38161215408493   -6.54070388652557
H       -15.65193979417801    1.01029196187615   -6.21342742178726
H       -13.36813343139140    1.96693124705729   -6.28524369404921
H       -11.43408087093253    0.49090296049828   -6.68954915529784
H       -11.76806950301570   -1.92210203570182   -7.02245076157155
H       -14.48721759779073   -1.68347338101602   -9.29758833643031
H       -14.78719053776320   -2.02745499878821  -11.71385108325905
H       -14.89429680118401   -4.30978370497040  -12.63600489175400
H       -14.76040575115213   -6.25763725106903  -11.12617813272891
H       -14.47305709627296   -5.91418045165311   -8.69746320797244
H       -11.94895481972931   -4.36426871675052   -8.83370134936136
H        -9.76338124229664   -5.38673779566362   -8.37875816732445
H        -9.12125238194261   -5.96733215164502   -6.06941160042155
H       -10.67926636891877   -5.51413346397807   -4.20999717727312
H       -12.87604520493002   -4.49474193096848   -4.66431429956307

