74
CSD_code = PUFLOR | q = 1 | S = 0 | Stoichiometry = C36H35MoP2(1+) | MND = 11
Mo        1.84327267797075    3.64424041976830    3.33227898214271
P        -0.15432571728570    4.26536375177571    2.13330581525272
P         1.32909669011396    1.62195317736698    2.13338109904254
C        -1.26798768341588    5.55555407747333    2.77508495430420
C        -2.62275538287935    5.60363075821405    2.46205926860287
C        -3.39689983711321    6.65901517509076    2.91065212841138
C        -2.82702730282811    7.67934427825729    3.65438654476946
C        -1.47436628186039    7.64603671242756    3.95221387376011
C        -0.69966146436460    6.58886688714065    3.51340234891453
C        -0.03193328687171    4.93753616339635    0.44363748282593
C        -0.53504743032302    4.31732504885745   -0.69627511049971
C        -0.42070933751543    4.93485694690892   -1.93041798882958
C         0.18697455149326    6.17331573118923   -2.04247074637947
C         0.67224932317040    6.80634128622116   -0.90900140238614
C         0.55928180136493    6.19399307479250    0.32391064495667
C        -1.23261179221894    2.77820172138918    1.96496371319837
C        -0.41470914836027    1.58204844792945    1.48775990967949
C         2.22732736736452    1.28470269868181    0.58484882588794
C         2.18779854183384    2.27503215590333   -0.39507555181008
C         2.81609633121677    2.09030985752528   -1.61092217051913
C         3.49291276744407    0.90771757637749   -1.86618447349893
C         3.52216139391887   -0.08754178515762   -0.90473557940134
C         2.89180205366658    0.09246913358270    0.31553958446363
C         1.59954364882521    0.08215054854050    3.05449439269503
C         0.61960047388229   -0.81851307551512    3.45140584750935
C         0.96558277911841   -1.94239695289461    4.18452016419968
C         2.28488030392454   -2.17526862752988    4.53067361360205
C         3.26840404975288   -1.27483221758338    4.14922484958162
C         2.92590047473141   -0.15173056130920    3.42249401222904
C         0.18824125262063    3.78013835380106    4.98371752060091
C         1.30063131145402    4.48279427143633    5.46281391743059
C         2.19228474128482    3.48824820722476    6.16265769240478
C         1.96442590129824    2.36858109348409    5.17811388755541
C         0.59194013463584    2.43635600324591    4.79319209321172
C         3.59604602037080    5.07151128346333    3.96932475849922
C         2.98205833308677    5.52050599756124    2.77597692070534
C         3.19892896982058    4.52504875516978    1.77720482024787
C         3.94028642546766    3.46995330714321    2.38387854044642
C         4.17712146711572    3.81200770003907    3.72654339237688
H        -3.07886713894806    4.82430572221917    1.87011903143765
H        -4.44930089872367    6.68751710779504    2.67262889647134
H        -3.43549573984506    8.50144769956697    3.99775538686907
H        -1.02597395983845    8.44351643556383    4.52542884196235
H         0.35637155659035    6.54961898100132    3.74656585366850
H        -1.01541917223297    3.35263763352560   -0.64305209224950
H        -0.81342339721427    4.44339595850677   -2.80762918716951
H         0.27338502273692    6.64847527123962   -3.00718260040451
H         1.13210295525676    7.77978945238063   -0.98645185459703
H         0.91189144269027    6.69804313850797    1.21180861151683
H        -1.65567804234037    2.59510075112814    2.96114295626880
H        -2.06160552167607    2.97625591332746    1.27975477833291
H        -0.32335098433702    1.59194978374767    0.39764763623527
H        -0.90005276515367    0.64186342774608    1.76100091671554
H         1.64585433885989    3.19009904383324   -0.20032621405987
H         2.77499682414985    2.86773379109825   -2.35913252432795
H         3.98790716645181    0.76045454093204   -2.81342266153842
H         4.03512462397194   -1.01614176256211   -1.10380612184895
H         2.91761579088588   -0.70156172171812    1.04594517404753
H        -0.42005379614539   -0.66335124481025    3.20015239168180
H         0.19730722744077   -2.63851702131759    4.48522785788941
H         2.54742026813024   -3.05394210441028    5.09884312776034
H         4.29847789129304   -1.44915914440669    4.42133779216905
H         3.68517421972281    0.56178903505243    3.12773739036340
H        -0.81816291634826    4.16501635839587    4.86987604773101
H         1.22636667216131    5.51157123128489    5.79220341048426
H         3.23196804326400    3.79212465840286    6.27027026260283
H         1.80977045959679    3.24752841582834    7.16547786641750
H         2.45038365358348    1.41249072602656    5.32385885424210
H        -0.07960516371123    1.60014011282747    4.62858326489197
H         3.74128155836183    5.67173417224112    4.85583451839411
H         2.66810046999454    6.53655560093308    2.59084187860653
H         3.10621911406048    4.68876141200930    0.71101897117789
H         4.39140810621787    2.64367534521537    1.85158377251918
H         4.79824696918449    3.25621389750432    4.41287918953358

