53
CSD_code = PUFQIQ | q = 0 | S = 0 | Stoichiometry = C20H30N2Pt | MND = 4
Pt        0.41007536181998   11.33404545754977   11.15720800683382
N        -0.29287649007779   11.16049406348928   13.14536899611837
N         0.77248684953217    9.29104001576630   11.57475177324069
C        -0.60979580552977   12.16459313457596   13.95771545560566
C        -0.73980702080441   12.02665305459179   15.32312264578993
C        -0.53407883937936   10.78119607210191   15.92334855222750
C        -0.18277041817797    9.74445996624233   15.07298903025579
C        -0.07347016522687    9.95392883423203   13.69865616392341
C         0.30472762419976    8.88705464859721   12.76975514068683
C         0.17796016670532    7.53601105389621   13.09115592116021
C         0.54590218982384    6.55345304515231   12.18537880231971
C         1.01502988222713    7.00197170547641   10.94739730837636
C         1.10635248723789    8.35363843540053   10.69255980699328
C        -0.68523309250140   10.61718654768076   17.42350737286804
C        -2.08517678483046   11.09127831744260   17.83920662599872
C         0.38253626715024   11.47223862751489   18.12004184325934
C        -0.51806992558346    9.16367543740214   17.87439252717135
C         0.45754059370815    5.06843241598323   12.48047729563186
C        -0.02167740145050    4.78051373432108   13.90563796874309
C         1.85029663283698    4.44618208758778   12.30559957737998
C        -0.52798218669259    4.42574822208282   11.49474262177396
C        -0.24464980307025   13.22601280649317   10.82893636326753
C         1.36660759015348   11.39450138856889    9.36912623603668
H        -0.77942638444989   13.12272303684531   13.48787153064142
H        -1.00205377876644   12.89158718972550   15.91066252704730
H         0.03037044674564    8.76540010948452   15.46534598068989
H        -0.22915083994903    7.26883722538610   14.05075535165374
H         1.31176345059121    6.30643343182237   10.17904945182293
H         1.47732635442491    8.70526849185587    9.74056322027037
H        -2.22447291306552   10.94601356960241   18.90807312563316
H        -2.84919481592043   10.52346274199773   17.31184344003510
H        -2.23070365322501   12.14517340167203   17.62017934818748
H         1.37857958937628   11.14368052149043   17.82992606844382
H         0.28910932655487   11.37852954202238   19.19966279120140
H         0.27999287679512   12.52170237228243   17.85731440836864
H         0.48135664522394    8.79469725726525   17.65468422465267
H        -1.25226847745755    8.51939714685103   17.39500069048369
H        -0.66705790350341    9.09938876877487   18.95002222344101
H        -1.02664485272927    5.16380073195283   14.06814967744475
H         0.65219401841346    5.21624350244481   14.64040133776200
H        -0.04475365414439    3.70528981530613   14.06898846233499
H         2.56408398827133    4.92242986382831   12.97494773368435
H         2.21083209951252    4.55775337579268   11.28696848000024
H         1.81514901906059    3.38435376795080   12.53846308618694
H        -1.51493985941304    4.87125563290558   11.60217569347525
H        -0.60803468336802    3.35883838936170   11.69063475573753
H        -0.20311739726438    4.56065086033369   10.46669576487380
H        -0.28423755483275   13.55784820340855    9.78996456789056
H         0.39865795144205   13.93583501835000   11.36607144787811
H        -1.26039681988668   13.32110944848049   11.23628497752229
H         1.61229194150857   12.38365726402814    8.97882534635383
H         0.75447506700839   10.89384135708719    8.60704371929491
H         2.31054310097491   10.83968888953731    9.45715453132407

