57
CSD_code = PUFWOD | q = 0 | S = 0 | Stoichiometry = C30H22N2S2Zn | MND = 4
Zn       -0.63969868351607    2.98397434096367    9.60257623683507
S         1.39519596213916    3.64632184794450   10.58655254101124
C        -0.11476471022719    0.16092156021474    9.08847124712221
N         0.12086173447887    1.30536662046036    8.47812572159345
C         1.97731650340307    4.91797317935385    9.53006863099354
C         1.27592775873972    2.60467035858005    6.85419344130037
H         0.65347203273083    3.44754802609402    7.11618181435433
C         2.25140973130039    2.71127409895324    5.90246038033632
H         2.41891246443486    3.65523803144147    5.40670066554071
C         1.85293008855321    0.25237255871243    7.16177583586072
C         1.06354807123702    1.38119817715792    7.51835785208589
C         0.61879138538232   -1.00757562290351    8.79000321402327
H         0.42696367414826   -1.91801157587881    9.33472878306672
C         3.04155544315071    1.60185256548766    5.55985878148387
H         3.80637780081202    1.70955702805745    4.80554456956518
C         1.60204294223696   -0.95641265930636    7.84194713399864
H         2.19445349474867   -1.82945674125522    7.60822064225658
C         3.83560285434167    6.26559911187955    8.80539816034444
H         4.88337914498845    6.52139499292378    8.87359557514942
C         1.66947560791347    6.61454604948502    7.85154362924955
H         1.01317837298176    7.14190472738078    7.17390021945570
C         3.01132154296426    6.94740984816977    7.92360651096001
H         3.41043070904403    7.73500848662354    7.30172216959016
C         1.15330276036954    5.61139394753183    8.64949516749476
H         0.09645306220386    5.37401821960080    8.59174942004726
C         2.84292082214136    0.39405351036704    6.17059080056117
H         3.44067104811509   -0.46659678211136    5.90763083439098
C         3.32757403475626    5.25939930572730    9.60131033830481
H         3.96302655569160    4.72593883171831   10.29182833614371
S        -2.67457595544033    3.64634929360064    8.61867093500618
C        -1.16453185829574    0.16089244530366   10.11669639726297
N        -1.40029015228681    1.30534414439903   10.72697563019054
C        -3.25651950695888    4.91844799737844    9.67471332724470
C        -2.55548141022851    2.60460174161935   12.35085736716914
H        -1.93314942608515    3.44754690502186   12.08879295633581
C        -3.53094564404078    2.71113727688623   13.30261551995291
H        -3.69856896775187    3.65511599548318   13.79830609072474
C        -3.13220720786230    0.25221811878849   12.04341803885264
C        -2.34297393713109    1.38112111433421   11.68674983477133
C        -1.89794382638780   -1.00767505169314   10.41524272376854
H        -1.70602213733483   -1.91811601352494    9.87055915437760
C        -4.32096023973694    1.60164327090444   13.64528643629513
H        -5.08577143701981    1.70929474042073   14.39962001809698
C        -2.88118091766256   -0.95657739625749   11.36331727326694
H        -3.47350258679570   -1.82967103253144   11.59708364417737
C        -5.11487213137097    6.26578320620208   10.39977283930594
H        -6.16257304139967    6.52185220706119   10.33133758830537
C        -2.94878832748165    6.61447867470970   11.35380226050393
H        -2.29236719192166    7.14210915529684   12.03113356456208
C        -4.29060862847014    6.94741272272141   11.28172849308709
H        -4.68959288108666    7.73535167393616   11.90327241842350
C        -2.43256686313039    5.61155117975400   10.55560352318316
H        -1.37575876686866    5.37399381740750   10.61349327265378
C        -4.12219643387037    0.39383599017139   13.03461378629415
H        -4.71982629107881   -0.46687617067854   13.29764492871328
C        -4.60681503942384    5.25975716005117    9.60367311678525
H        -5.24234140214869    4.72619478985963    8.91328020754807

