54
CSD_code = PUFYAR | q = 0 | S = 0 | Stoichiometry = C10H20N4O15P4Zn | MND = 5
Zn        4.98790270711141    4.29529712714654   14.22435299392414
P         6.74347616778870    4.08226122900508   12.03186801784694
P         7.59978376007303    5.35045027841370   14.62156342010192
O         6.71415499753407    6.75651468677195   12.51208834399972
H         6.73410465859194    7.35816972559526   13.27402206810003
O         6.04960974268670    3.33736516801203   13.15717660883888
O         5.61831802953879    4.71512746151117   11.06859505480151
H         4.84902875838055    4.98474361954536   11.59045184098162
O         7.73948928150835    3.36227425623837   11.22749938960929
O         6.16904563658534    5.38341823256846   15.17342570472450
O         8.18358452455703    6.83869448691649   15.01082377241756
H         8.76569297342378    6.72659852477088   15.76031937890301
O         8.53625172346679    4.30964655463811   15.04277913034847
O         4.84252628427238    7.84174211997782   14.62477776728108
H         5.42711081254062    7.15042627945913   14.97192123038943
N         8.99501511335719    5.63133956022552   10.87986682253569
N         8.30163152296456    5.48483288453141    8.84344036868073
H         7.69208908593754    5.54179902181990    8.04143808676256
C         7.50237637595116    5.62702442417329   12.80364296889519
C         8.93440137774732    5.80368895201798   12.31005641677791
H         9.30421831381746    6.79761397429680   12.58723133848745
H         9.54517389836771    5.03399306054636   12.78502774340092
C         8.03415215402128    5.99048762751771   10.04343954361024
H         7.16842024499703    6.56362259992889   10.31802542254529
C         9.45872177456200    4.76989448033142    8.91807186603155
H         9.87236664411389    4.24503281094714    8.08252544310742
C         9.89264372499624    4.86615733342956   10.20229244267546
H        10.73946745642792    4.42239724797555   10.68248299858146
P         3.10249041258405    4.40032558778575   16.35946869195205
P         2.48623790764111    5.50641044564317   13.58325023165505
O         2.55011379909096    7.05181027583052   15.85934469403627
H         3.37422798871416    7.37948244742865   15.42053911895920
O         3.83118301032505    3.52898503580344   15.34844397961024
O         4.19307756820489    5.24292081568578   17.19662623548212
H         5.03055702735836    5.31002668780456   16.72158477062571
O         2.18788252979164    3.72226097244301   17.29724040653021
O         3.98680795734157    5.50342881307916   13.26999515656297
O         1.99172894734212    6.95002038808392   13.00868098568569
H         1.33592157344680    6.77633902795136   12.33614011693850
O         1.64723223140906    4.43043133260687   13.03980507944273
H         4.50882946197466    7.49604034729129   13.78582443587529
N         0.32458829341824    5.53175248375285   16.95269595135353
N         0.49347084706939    5.52515194201454   19.10231273072302
H         0.89726893142965    5.61572468274358   20.02186688494815
C         2.21348404127036    5.76738122281668   15.40254554526843
C         0.71211649331935    5.59368177092940   15.56483452718957
H         0.20610168961114    6.43790518671064   15.08103900619670
H         0.42526346173395    4.66137312122728   15.07384635153109
C         1.08791791365802    5.89121924822552   17.97118509305818
H         2.02048943692365    6.41641905337483   17.87915142568374
C        -0.66711966416302    4.87484097199641   18.79674131165718
H        -1.31373040516820    4.46107048161361   19.54204187054057
C        -0.76919849497780    4.88377280981558   17.44265494605082
H        -1.51780070467881    4.46771111901850   16.80093426809915

