29
CSD_code = PUFZEW | q = 0 | S = 0 | Stoichiometry = C12H12I2N2Zn | MND = 4
C        -0.32835572603662    1.98223699470757    6.57701484881735
H         0.56329307842909    1.41591999303965    6.30073920483586
H        -1.20173731388535    1.41622584444259    6.25506391434084
H        -0.34609248368562    2.07788773740524    7.65926650640774
C        -0.29106962657190    3.32106635579768    5.92541631218453
C         0.15489259713690    4.44775241416924    6.61426055419530
H         0.46445120251486    4.35799763573577    7.64321532241586
C         0.20880208114658    5.66165417683956    5.95734057224550
H         0.57207086772515    6.54413308557536    6.46177794096241
C        -0.20905704251886    5.73357640749499    4.63833751841109
H        -0.15692335567104    6.66539098986630    4.10052811904241
C        -0.66272160894971    4.57544073833020    4.01628261727586
N        -0.67826142877837    3.40227006211443    4.65594689615757
Zn       -0.89817091409041    1.75711034929333    3.31879361723431
I         1.43853959860676    0.82229412492438    3.13420288235352
C        -1.46748360735465    1.98226857602174    0.06031908631253
H        -2.35902556725968    1.41583675844408    0.33673508160425
H        -0.59402397030107    1.41625449509383    0.38206591621024
H        -1.44994552536840    2.07802459488525   -1.02192415486559
C        -1.50475499845931    3.32109883311416    0.71192869831461
C        -1.95075799108957    4.44780107745476    0.02312391403033
H        -2.26030735296739    4.35803016417576   -1.00582938548614
C        -2.00473683425892    5.66170098962594    0.68003598564583
H        -2.36803694339457    6.54415514783656    0.17559692624324
C        -1.58683841377279    5.73364112208072    1.99903066753835
H        -1.63893634194932    6.66540859372702    2.53692261048787
C        -1.13313403324438    4.57548218464936    2.62103489607720
N        -1.11756836710190    3.40233283154277    1.98137672886983
I        -3.23420997885021    0.82250772161084    3.50279620213576

