113
CSD_code = PUGLIO | q = 0 | S = 0 | Stoichiometry = C52H38N10NiO12 | MND = 6
Ni       -2.12005446711033   -0.00004402406671    4.76067803379199
O        -0.65750796465225    1.22840357401706    4.63293542997082
O        -3.60122892969822    1.73514934654541    4.48461681397012
O         0.83633607585541   -0.09963791010806    3.64953098266962
N        -3.32444923320691   -3.31325442671868    8.79569536206203
C         1.02189043844886    2.23735169179118    3.33870146685292
N        -2.13342236700493    0.14421577081735    6.70909552850617
N        -4.14374236481860   -2.12180239702605   10.46690095287666
C         0.37778034354101    1.01780036051010    3.91846002634556
O         2.72153127485642    5.51229775956648    1.45809409768337
C        -3.46548593862610   -2.08242516192612    9.30492397673904
C        -2.44622464477725   -0.93912497489081    7.40454440066890
C        -2.23836173107055    1.34123488045254    7.28646949595807
C        -3.00941150202478   -0.87152621482773    8.68049803424819
O         3.88807920252489   10.76462951992554    4.87478486553574
C         3.49784265231294    9.23459877988181    3.09482808678178
N        -4.43978698037792   -3.34901300616091   10.71387254725381
O         3.88462686889124   11.54026135075962    2.78454291345112
C         2.15779694983137    4.46537549042200    2.13641151221078
C         2.95104472642890    6.71399711618967    2.05696066708698
C        -3.94441974957180   -4.08720594062100    9.70589689484710
C        -3.16559300265011    0.38331243188070    9.26778707270016
C         3.41579727489107    8.12690433210152    3.93671161749563
C         0.59987051818945    3.51431189854277    3.68997266933278
C        -2.73236600735177    1.49588406216716    8.57235355945348
C         3.77147015097094   10.55527464919783    3.69162289636035
C        -4.05655144109580   -5.52127583461979    9.63411367292156
C         2.56176950373744    3.18691262507359    1.75898852123095
C         2.00034117029146    2.08216563619226    2.36172052514007
C         1.16525932983172    4.62534380378632    3.10002160569570
C         3.14886402920119    6.87415804577697    3.42797702335155
N        -4.23893558622088   -8.26795251910676    9.47935117128012
C         3.07183687060635    7.81422706804883    1.20723460574514
C         3.33553486755272    9.06418220146406    1.72064416387884
C        -4.71228128527375   -6.24705531963034   10.62736440571608
C        -3.49160972699396   -6.21227113306108    8.56175431741590
C        -4.76796825336111   -7.62328634140688   10.50316876039031
C        -3.62188440987359   -7.58914211088327    8.53302533714980
H        -2.28842515902381   -1.90839967648934    6.95239871599822
H        -1.90364256702899    2.19046371964624    6.70617571847745
H        -3.61636274129554    0.45873158416468   10.24539150296548
H         2.30416276787081    1.08478779811184    2.08309164590046
H         0.82713129439518    5.61647770052304    3.36373262046046
H        -0.17898949516412    3.62710638329336    4.42794961091561
H        -2.80195337454015    2.48214794428558    9.00350225530816
H         3.57121767072413    8.26924954205699    4.99534962678385
H         3.11218600184663    6.01758520669112    4.08425117050073
H         2.95214243019764    7.66057849996991    0.14700190594938
H         3.30987169064385    3.08442597166401    0.98873631276663
H        -4.33248280663084    1.25158908317868    4.96339330252147
H         3.41364823918815    9.91618464791502    1.06491980307755
H        -3.45658692173377    2.55599871050034    4.96087951740469
H        -5.25134452565774   -8.23980467196220   11.24933755194226
H        -5.15497025761997   -5.73288221700418   11.46533041668580
H        -2.96868814622335   -5.66950238756075    7.79115553099335
H        -3.21158030291483   -8.17637686984783    7.72207760023153
H         4.06131960730389   12.37866388960633    3.23855668100917
O        -3.58238257599263   -1.22848187887008    4.88847640253149
O        -0.63894295827328   -1.73525863273677    5.03602567325602
O        -5.07644461948033    0.09959462467153    5.87138727108003
N        -0.91598225594120    3.31299613749389    0.72576057643530
C        -5.26214130353955   -2.23741166411607    6.18221834442178
N        -2.10683623068818   -0.14438683129815    2.81230643013622
N        -0.09684984700405    2.12174766497911   -0.94563342295457
C        -4.61782145174063   -1.01792787511793    5.60281715105539
O        -6.96200600525209   -5.51260690324702    8.06223950784771
C        -0.77490237110012    2.08220956185834    0.21648513906804
C        -1.79391653116184    0.93892000256242    2.11687924070857
C        -2.00215263244823   -1.34138502502175    2.23489362904984
C        -1.23087582518897    0.87127760595600    0.84086120539839
O        -8.13078933277598  -10.76342996156630    4.64410632252303
C        -7.74000454742815   -9.23409228250840    6.42445827587627
N         0.19903147048104    3.34896191538841   -1.19265804487699
O        -8.12751862246030  -11.53975750767514    6.73402628704977
C        -6.39830783446449   -4.46558439246932    7.38407098771873
C        -7.19222175295557   -6.71398738711148    7.46303832076806
C        -0.29625273435722    4.08705221257741   -0.18453099695235
C        -1.07488318207522   -0.38356631744024    0.25353280756482
C        -7.65778307097055   -8.12615391748699    5.58290514634872
C        -4.84037638876174   -3.51437672262277    5.83057963609153
C        -1.50820610240225   -1.49608286557648    0.94897487318671
C        -8.01396740053577  -10.55451202615573    5.82738958780380
C        -0.18449472288695    5.52115161789220   -0.11287713099539
C        -6.80204885096708   -3.18715529290474    7.76181096364881
C        -6.24052652224301   -2.08233656282384    7.15927058709661
C        -5.40589570091874   -4.62545439397162    6.42028882266196
C        -7.39034184966651   -6.87366106577000    6.09200757774248
N        -0.00344012320310    8.26793472227398    0.04131281269721
C        -7.31335513007696   -7.81442883029268    8.31245911208336
C        -7.57752946838138   -9.06412682602654    7.79869597480310
C         0.47096617741685    6.24701858265822   -1.10624439665459
C        -0.74973284543761    6.21209264813049    0.95936584937919
C         0.52594941313709    7.62330199940175   -0.98234269775744
C        -0.62012012208180    7.58904277961208    0.98780845192577
H        -1.95146795924337    1.90820577437549    2.56905312777749
H        -2.33698870519460   -2.19062467719883    2.81509903572664
H        -0.62424321732547   -0.45901721135668   -0.72412940499027
H        -6.54422142941782   -1.08501012540616    7.43822359052059
H        -5.06797997569217   -5.61657427902145    6.15625176604499
H        -4.06158940719576   -3.62707211819258    5.09251757406515
H        -1.43877273452469   -2.48236572942416    0.51784592555087
H        -7.81341512886152   -8.26810037972562    4.52425196875306
H        -7.35345294237352   -6.01690129470372    5.43598103144426
H        -7.19356601922841   -7.66117057448092    9.37273381512326
H        -7.55008451777153   -3.08467162846046    8.53212878589956
H         0.09225857280446   -1.25177398188681    4.55707984117054
H        -7.65588266820565   -9.91631543183546    8.45415229637728
H        -0.78442645776127   -2.55597095751392    4.55982718265225
H         1.00898948404494    8.23991715427398   -1.72864915025619
H         0.91392517343451    5.73286832402063   -1.94407584105807
H        -1.27238465928843    5.66915060699655    1.73003344345198
H        -1.03066217187769    8.17619133290663    1.79870068422946
H        -8.30457145101828  -12.37790165465248    6.27962254490089

