89
CSD_code = PUGLOS | q = 1 | S = 0 | Stoichiometry = C45H39FeN2P2(1+) | MND = 8
Fe       -2.63062337340753    2.48951836539466    1.77051083310880
P        -0.53306865862615    2.81118334373935    2.14688237028723
P        -5.93082106149047    4.97386458655775   -0.71183584477383
N        -2.81239434629582    2.73447766940457    3.59345260360427
N        -3.12758772790741    4.31224427687001    1.66255762363907
C        -3.04840430940417    0.42199465292208    1.82807488453468
C        -4.26353243372595    1.12676743373886    1.64119516167647
C        -4.18043074130602    1.80965710966999    0.41677040078891
C        -2.91205025595491    1.56850914084130   -0.14594801533222
C        -2.22055590378718    0.68267012779175    0.71959007088766
C        -3.48204003410243    4.88613560059308    2.94350998963873
C        -3.84571922456824    3.70116704749491    3.83782262640853
C        -2.23655292395199    2.11526229256345    4.55346982280007
C        -1.09007029797088    1.24983951732851    4.36475883272692
C        -0.18817538106081    1.44303836450822    3.29795187184812
C         0.87776862343938    0.57031847185757    3.14283203703105
C         1.07799471138613   -0.46946848725472    4.03849445133817
C         0.22162425819062   -0.63302327936115    5.11500121386359
C        -0.84886789655731    0.22634815897203    5.28119717766520
C        -0.04976417360106    4.30299255124156    3.07973750208260
C        -0.03795762816621    5.48907576572044    2.34523379057235
C         0.29806776041928    6.68340986794615    2.95286984243530
C         0.61913982950867    6.70493010469795    4.30236354070530
C         0.60819111453900    5.53064790337398    5.03584496714749
C         0.27490619142897    4.32973324309791    4.43046677745511
C         0.81027226996386    2.78714741299719    0.92520678301828
C         0.50827924204081    2.63435076355765   -0.42163493821667
C         1.52115888283580    2.64199712941460   -1.36499762935313
C         2.83660873735813    2.80803376095206   -0.96458829784378
C         3.14050633061894    2.98000659208132    0.37798347727260
C         2.13288303616381    2.97753607075382    1.32374739436712
C        -3.33705982153684    4.96340242656202    0.58623239855584
C        -3.85786449044946    6.32907069270430    0.45921429577292
C        -3.17003315982786    7.42281888461946    0.97231616837074
C        -3.65130938430184    8.70245918292333    0.75781824308147
C        -4.82345773899235    8.89449003932993    0.04371200381277
C        -5.53217167438441    7.80866830185492   -0.44147745911675
C        -5.06167377575310    6.51952522751446   -0.23245629597547
C        -6.70263294933925    4.58459987778344    0.91364732774536
C        -6.75065800570561    5.46420916021697    1.98978773990612
C        -7.30536190681297    5.06289620198482    3.19303589999243
C        -7.82268748076344    3.78584290782979    3.33469923546475
C        -7.80298992622401    2.91235474252233    2.25910306639866
C        -7.24432455503505    3.30933876487741    1.05836046358521
C        -7.36351442410019    5.66922804359489   -1.61774386526630
C        -8.65282933830232    5.73938429668548   -1.10429870614204
C        -9.67511080584433    6.25794311755352   -1.88026198884389
C        -9.42191262920986    6.70188642789508   -3.16713755914324
C        -8.13974391389961    6.62167437929559   -3.68784350529930
C        -7.11664411339890    6.09920467043964   -2.92045440927217
H        -2.83832281241437   -0.27573465295292    2.61892637423720
H        -5.13365432170654    1.06049063294981    2.26922564364329
H        -4.95593419707709    2.40369556069337   -0.03342356176951
H        -2.61050438789409    1.85352282439446   -1.13843107202663
H        -1.26412215335200    0.22531524157790    0.52673494408655
H        -2.60909905267509    5.40024697275215    3.35826015314171
H        -4.30966435866390    5.59341248769712    2.85586904649994
H        -4.80091779418512    3.28639873245185    3.50458514362412
H        -3.91910235100768    3.99000693395297    4.89016865831613
H        -2.59939503543732    2.22948177135322    5.57356590220632
H         1.55938178930217    0.70024882872637    2.31483033665155
H         1.90750838407204   -1.14496927313118    3.89836709021933
H         0.38612509788731   -1.43072246715775    5.82235998696539
H        -1.52380582449917    0.09432316192465    6.11416997873232
H        -0.28678390725083    5.45342565973897    1.29175210831482
H         0.31889594075227    7.59772029831876    2.37848080979852
H         0.88478186956828    7.63599390739489    4.77851753050542
H         0.86777799513610    5.54685360887174    6.08352662889863
H         0.28262159127451    3.41587478832619    5.00719165954104
H        -0.52410454362727    2.51721968953021   -0.71372094691361
H         1.28573890938870    2.52094484866753   -2.41149694384907
H         3.62742420462599    2.81150503685152   -1.69874861412099
H         4.16548910266467    3.12014591932921    0.68611806176603
H         2.36253565977829    3.12586741519264    2.37044262017928
H        -3.08318804268508    4.45430190486259   -0.33563477061604
H        -2.24773261617833    7.26844649257326    1.51274603613687
H        -3.10896029972802    9.55110945724702    1.14513008608337
H        -5.19389224563967    9.89376913745239   -0.12625536397049
H        -6.45615270665906    7.96132663201964   -0.97936404250402
H        -6.37618185708523    6.47300318064152    1.88489042627743
H        -7.34243525219551    5.75558386485885    4.02108528106986
H        -8.25478572599367    3.47891656032037    4.27511629250769
H        -8.22763951551615    1.92401938873397    2.35505454336790
H        -7.24651142610605    2.63271582603214    0.21405931438863
H        -8.86087839894141    5.39506047256087   -0.10130339615652
H       -10.67453517335666    6.31598414363206   -1.47519773395355
H       -10.22375475039030    7.10551929577907   -3.76631584103761
H        -7.94065441702463    6.95963859014358   -4.69381578099827
H        -6.11427190011561    6.02587421957148   -3.32254096475945

