34
CSD_code = PUGWOD | q = 0 | S = 0 | Stoichiometry = C12H14NO6V | MND = 6
V         0.15973315794848    8.73499077412481    7.13170125865341
O        -0.73466854123178    8.70306771548281    8.37293046088828
O         1.84316766926010    8.45381209769486    7.82075000504277
O         3.79970173805127    9.20936060636615    8.54873495303583
O        -0.92769129818623    9.47856748798560    5.94496421441905
O         0.23284464033323    7.24396410031179    6.48059596268883
O         1.70299572225685    9.16448353471358    5.05481919313486
N         0.73266381517332   10.62098317280822    7.51585412238440
C         2.66382707267431    9.36575518072659    8.16233951230388
C         2.06885144159105   10.79034978751542    7.99093031313878
C        -0.11912216558614   11.57238243194937    7.60239886484639
C        -1.43789754637969   11.50653627124312    7.05513973643216
C        -2.36710474791315   12.53411663922211    7.27623951706978
C        -3.59933512799671   12.51516889083831    6.66877291626806
C        -3.92326492811524   11.47478697919303    5.79746641614753
C        -3.02730605619803   10.46337547459997    5.54263292674439
C        -1.77354525023837   10.43186168017929    6.18292213630229
C         1.09372343351678    6.31571117033095    5.99111118692875
C         1.69534642242321    6.73813006036025    4.63773965858828
C         2.49980832445817    8.03543686530190    4.74575186651146
H         2.12115114245750   11.33452359379185    8.94316056146609
H         2.68605082272394   11.31220974328690    7.24806725204006
H         0.17445954798775   12.52088894347650    8.06781598129416
H        -2.10227605601119   13.33938902434507    7.94649422071162
H        -4.31352364531593   13.30108340388262    6.85814985003176
H         1.00696957556945    9.23056046682597    4.38480335201447
H        -4.89034647464448   11.46311017041169    5.31682590952975
H        -3.27579196286644    9.65074708151958    4.87524829641528
H         0.59458102490096    5.33604553734962    5.88884871974662
H         1.90939635943638    6.22438977629868    6.73642010945715
H         2.34803580416598    5.94268991987152    4.27574813506312
H         0.87877797858713    6.87440144764626    3.92005677839100
H         3.23398530704695    7.95996391399093    5.55300735578903
H         3.03230280012075    8.21715605635454    3.79915825652033

