56
CSD_code = PUGXOG | q = 0 | S = 0 | Stoichiometry = C19H32NiO2P2 | MND = 4
Ni        2.36835352515011    7.31217211912590   15.04757870123229
P         4.09893380645786    8.47042101217362   14.28440538107606
P         3.05197686711420    7.65759895180338   17.03668563458632
C         0.60790060462202    6.62846423924547   15.51937386417275
H         0.39784617585608    6.28857225030881   16.54161124353851
H         0.00813956380521    7.54290650112705   15.34172701153976
C         0.20440999059459    5.55656812053064   14.50493847728331
H         0.55808489375358    4.56769916918150   14.81015371207929
H        -0.88162976973006    5.50109754175050   14.38213973490165
C         0.89472889753995    5.89759622251847   13.17727715319307
O         0.50979828703905    5.50787134696207   12.09388113493867
O         1.94657384217225    6.62883419323163   13.33931789944747
C         3.31628120571710   10.00543527426146   13.52440894703338
C         4.22828025029415   11.22338742608364   13.42403790521347
H         3.68211758612139   12.03716193011292   12.94819550346034
H         5.10768951253154   11.01885237718677   12.81689935747577
H         4.54950381798063   11.56296128468461   14.40716936727202
C         2.82353761285611    9.58494868746242   12.13933134742691
H         2.13208171543332   10.32781317122050   11.74426316825092
H         2.30454570690943    8.62758777298039   12.19786467800948
H         3.65210777681190    9.48834039932178   11.44064134154317
C         2.11980235771703   10.31987659380793   14.42512405419767
H         2.45087677099468   10.61512355166437   15.42280018135112
H         1.48369009626364    9.42683041794113   14.51272035289328
H         1.51942692925788   11.12717025008814   14.00815952312689
C         5.43802223170092    8.01956901744182   13.11913925647411
H         5.97470351270863    8.88864315824502   12.74399220263469
H         4.97591169524915    7.48599303137163   12.28995137746736
H         6.13234466899168    7.34657461228597   13.62073280713764
C         3.96362724702552    6.08420474675825   17.53482788698079
C         2.90757180432166    5.03724779510843   17.88514697776001
H         3.38544224705768    4.07985360040769   18.08782081188037
H         2.22379199224140    4.90713259571932   17.04759005809714
H         2.33922340345760    5.32547493612300   18.76734796277993
C         4.71249237329584    5.63892253459195   16.27748756171660
H         5.50369005298819    6.34756217474248   16.02851894308251
H         4.01383117784069    5.57528761767568   15.42966663707743
H         5.16310602322956    4.65834707899177   16.42332363827304
C         4.93589046108893    6.26524387897612   18.69571466815514
H         5.70357154711718    6.99990026132814   18.46102626909022
H         5.42913729159534    5.31586829805853   18.90041708113612
H         4.42189484657717    6.57262044088407   19.60403341152830
C         2.09579044641312    8.15180409926068   18.52086261807939
H         2.65694459226942    8.01005839508904   19.44185143807210
H         1.18326481410553    7.56009069934450   18.56010017604885
H         1.82099761248423    9.20078286914771   18.41584237407034
C         4.98750321385183    9.14183801134753   15.73840633420707
C         4.42004474245471    8.87323079698638   16.99085600663434
C         4.95638584541377    9.46756838033939   18.12744810302901
H         4.50853908923357    9.29845931718224   19.09474615395559
C         6.07414758878560   10.27770324400041   18.03016097579218
H         6.48445521707599   10.73623729496197   18.91780374358582
C         6.67993341173408   10.48138649949732   16.80085200187300
H         7.57045500384630   11.08854232225823   16.73115775697871
C         6.13510012083655    9.92059046024125   15.65926876102460
H         6.60742770172199   10.09197102683215   14.70410033013082

