46
CSD_code = PUGYIZ | q = 0 | S = 0 | Stoichiometry = C23H18CrO4 | MND = 9
Cr        2.95801243935371   10.47400200376573    1.29429382001583
O         8.04471236959625    6.53584458160134    0.49184174385713
O         4.42770528644003   10.74797297055376   -1.28151309298675
O         0.81017180712755   11.85705333050649   -0.23332654325586
O         3.77986786941868   13.32939307671740    1.43810679192079
C         3.35232969670864    8.26983275133031    1.52151731632187
C         1.98908056552206    8.44517071283942    1.71634187543520
C         1.52884961649421    9.35598933831502    2.68777899139878
C         2.44984467169340   10.03846554534751    3.47961108545760
C         3.83406134969184    9.87963649610881    3.27745594669319
C         4.32001381224476    8.95965505234965    2.31211398596767
C         5.74759433368402    8.71486480423530    2.15954157440581
C         6.70473273557937    9.55224922744218    2.97293727371366
C         6.08426706671174   10.88809400676115    3.37160732897392
C         4.79799916418080   10.63255228138462    4.14471223130204
C         6.24372013784264    7.75213167808187    1.34880174634651
C         7.66017205763977    7.46970096094763    1.16881768311158
C         8.62675535147748    8.38420542558242    1.88883403289722
C         8.01230274520809    9.75066287408927    2.18955326166322
C         8.99111982894433   10.62274443500337    2.93566230649465
C         9.44135645407894   11.80952775049141    2.37211561028775
C        10.34778989585499   12.61336916562822    3.04112339190309
C        10.81676136223962   12.24170978735279    4.28873097659770
C        10.37401443452002   11.06151811825021    4.86143299395400
C         9.47005391456911   10.25927213306144    4.18958195425770
C         1.61266877186912   11.28731247410414    0.36680919192318
C         3.48024259880303   12.21412630470804    1.42324008764358
C         3.86165165293629   10.59437729791828   -0.29019826826573
H         6.93366449956918    8.99519924823432    3.89312460952867
H         6.78901425835724   11.45269047834802    3.98322075977739
H         5.86078673266374   11.47498974838956    2.47610048737820
H         4.35127652960322   11.57582633546359    4.46693100720966
H         5.02144840701795   10.04587533818865    5.04414939616580
H         5.60430391536120    7.10199417490596    0.77092380317896
H         8.90945593308917    7.88505791169532    2.82073247185342
H         9.53300298379294    8.48311818028721    1.28875173414743
H         7.76274762587812   10.23756110248018    1.23982124413725
H         9.07813669270759   12.10739018241547    1.39904588598981
H        10.68807293089542   13.53180557315838    2.58639481731518
H        11.52435968270039   12.86666015862402    4.81271507973432
H        10.73595383483819   10.76334029365191    5.83466397093270
H         9.13775235909448    9.34098320264722    4.65251869645662
H         3.67855394753171    7.52560602393223    0.80786311163667
H         1.27881137287660    7.85297266113634    1.15250358125269
H         0.46713135032638    9.44982639721278    2.88117759660573
H         2.10607495326597   10.68056840475056    4.28303644866436

