49
CSD_code = PUHBAV | q = 0 | S = 0 | Stoichiometry = C24H22Cl2Zr | MND = 12
Zr        5.58232921454463    2.27423377977685    8.70816671217462
Cl        3.52604693346305    1.90871368948849    7.67965773184270
Cl        6.80280468921990    1.14461631642580    7.09566768884811
C         6.80596304294474    1.30867411887124   10.57922193808682
H         7.88352868662578    1.36237652070926   10.67765851883481
C         6.11047903759752    0.18419643187267   10.07151694639823
H         6.56813246550195   -0.73017616264015    9.71384325622728
C         4.73217743070278    0.41506577399313   10.22809446130336
H         3.93812467959757   -0.28986490092165   10.01318073937781
C         4.56394499598563    1.68273611580104   10.83844590366626
H         3.61032088486543    2.08016880749771   11.16624066245917
C         5.85129147255634    2.22723286899588   11.10026849354741
C         6.12565300053278    3.70360029830670   11.39396432893380
C         7.44272520747733    3.92413266930206   12.14769612682964
H         7.30779935799047    3.67228858063612   13.19731365652761
H         8.24584824001247    3.30540685697739   11.76470320877307
H         7.74125079149191    4.96754013546054   12.07788701898089
C         5.00798112434711    4.33194732793274   12.23770529905616
H         4.97922390574674    3.85743988174785   13.21602277771972
H         5.20424100619493    5.39321409206874   12.37345427419142
H         4.02892877024914    4.21897144405952   11.78218366859580
C         6.12791999781706    4.26121015650038    9.96528748932399
C         7.15344257322293    4.08291122740872    8.96863331669165
C         8.52881954024065    3.75040175624606    8.99793553764451
H         9.04845099760642    3.59875472198141    9.93277203552852
C         9.23916025598927    3.68899563135034    7.82533668761521
H        10.28961233821864    3.44013816337058    7.85614670428090
C         8.64593385505890    3.95659831767644    6.57926141324218
H         9.25434095303088    3.90996704391661    5.68934651701785
C         7.31778875558289    4.27925754444255    6.48944231836050
H         6.85996793974855    4.50892891579385    5.53668458339682
C         6.54661416256842    4.32738202863409    7.66754657754478
C         5.16203954313436    4.61017099694701    7.87331270399669
C         4.92793803977106    4.57500773553765    9.26340224063950
H         3.97700114591611    4.84094465767089    9.71272010154685
C         4.18983080989178    5.01104089327133    6.79761566107072
H         3.19634457294456    5.14136903521235    7.24033502536168
H         4.11492205442591    4.21727138013252    6.04453140411106
C         4.61958950113580    6.29584932782959    6.13007501383237
C         4.99970159686739    7.38742379660101    6.90097114545516
H         4.98476170109303    7.30720634982374    7.97840179129168
C         5.40087890586401    8.56630131132204    6.30037632485437
H         5.69488326903803    9.40774053175979    6.91062537054848
C         5.42813286171110    8.66912589267326    4.91975821352870
H         5.74361536094969    9.58899490519367    4.45014641028868
C         5.05030768034124    7.58721975668985    4.14460958938210
H         5.06902333205673    7.66048411166512    3.06708063262954
C         4.64950335767317    6.40734691282850    4.74726713214557
H         4.35527996045269    5.56534225116127    4.13638464629752

