63
CSD_code = PUHDIF | q = 0 | S = 0 | Stoichiometry = C28H25BrN5O3Re | MND = 6
Re        0.95362243525574    0.07432953316261    3.11515637515300
Br       -0.45598015723968    0.96659266632198    5.09590969863727
O         2.88311171225659   -1.05919404645827    0.98945598436502
O        -1.47617597300484    0.31001214310251    1.22092055085035
O        -0.09296881896202   -2.69318967355945    4.01595025614937
N         1.67660812786805    2.07970040390387    2.91283316604267
N         2.56950682980013    0.35296201814367    4.67138450888965
N         2.75536062504872    3.86586570873507    3.69811008707792
N         3.06024102785652   -2.38799869464820    3.92808126299968
N         2.25809910192984   -2.97402731981946    5.93738490110063
C         0.65499697152981    4.37405507520572    0.19510882738577
C         1.32161054857889    5.51875343200785    0.69275672758754
C         2.05754033578866    5.46059312493902    1.86141018411743
H         2.55814675958989    6.34350530992094    2.23064493870324
C         2.12236147378453    4.25232905496166    2.54009832793590
C         1.45086215926558    3.11416101345485    2.05352149549096
C         0.71952392515463    3.17420337085281    0.87134723697818
H         0.21914926629756    2.29230137458898    0.50299939742136
C         2.44616694772880    2.54762146515251    3.88835625540521
C         2.85823061619571    1.64280517125149    4.94242183474980
C         3.44457437984082    2.01937096062029    6.15025969589896
H         3.60131886798927    3.05504542670475    6.39138864684414
C         3.77744509492681    1.04079680884958    7.06884831068103
H         4.21815520681196    1.31206229016660    8.01592875884356
C         3.54617516760760   -0.28598252316723    6.75418931624972
H         3.83783008026240   -1.07734307088610    7.42517031360312
C         2.93339999134913   -0.59151673283153    5.54067778631548
C         2.72960553082157   -1.97487381344912    5.12937617401151
C         2.28048069401244   -4.11341732500308    5.17155937987307
C         1.90883126598363   -5.42328539595785    5.42684547464247
H         1.50984603321060   -5.71617625041270    6.38702862364540
C         2.05934804621547   -6.35197931707335    4.41406543481252
C         2.57749190362749   -5.97393843624856    3.15372175743064
C         2.94852764989774   -4.66897739598221    2.90366148847910
H         3.33627065154592   -4.36714738723693    1.94403263310505
C         2.79923730502122   -3.72746053906955    3.91596404204901
C         0.32943328702736   -1.69721516205123    3.63261768643046
C         2.16834248784598   -0.63644355990547    1.77673293399311
C        -0.55214042285995    0.19719055084512    1.89533788939136
C        -0.13018676144212    4.46301842764840   -1.07653054191276
H         0.51178498473795    4.75607720681991   -1.90654300946829
H        -0.92076595774594    5.20713433145018   -0.98936444973274
H        -0.58312795050062    3.50384581105523   -1.31034004246467
C         1.22961615344536    6.81275137286851   -0.05467428342144
H         1.79110662199817    7.59387814021455    0.45128955846574
H         0.19176319010305    7.13212706418375   -0.13897656641560
H         1.62311944331952    6.70100818244947   -1.06421260280051
C         3.61436981668708    4.71488860386018    4.47445957515796
H         3.11849599980870    5.04856779505378    5.38989212129451
H         3.86045406817401    5.59142319352803    3.87734181256474
H         4.54155655192212    4.19674733050774    4.72437071337094
C         1.63872222636042   -2.84612750192619    7.22683594718919
H         2.31785220370612   -3.16337595691069    8.02357080846025
H         0.74601999951200   -3.47190311477403    7.25756739455755
H         1.34163700720609   -1.81154384453557    7.39538269283105
C         1.66421627631873   -7.77672328723007    4.65816598595970
H         1.28619794731572   -7.90400018171730    5.66933724732094
H         2.51595525440968   -8.44212251995043    4.52063186439332
H         0.88822849426416   -8.08407296515480    3.95831784697192
C         2.71992178360990   -7.00310929588950    2.07284384250837
H         1.75286427391594   -7.44158357263124    1.82961119050444
H         3.38007629567183   -7.80982632016777    2.39012587721765
H         3.13033494134643   -6.55376915788366    1.17283865411158

