33
CSD_code = PUHFUV | q = 0 | S = 0 | Stoichiometry = C14H12Cl2N4Pt | MND = 4
Pt        0.39930886263310   -1.52381414015456    4.72260508623121
Cl        2.28853664894930   -2.64718620930925    4.43447334480564
Cl       -0.73826476692693   -3.43016849310077    4.65677141515237
N        -1.24746660210575   -0.35738146911993    5.00374495980048
C        -2.51908833546033   -0.75379308399108    5.08425051634000
H        -2.67500693561385   -1.82051102034347    4.98193996112994
N         2.43299528186617    0.69459513145467    4.71581442342043
C        -1.95302743891789    1.91467535307360    5.32663849220764
H        -1.69136392493863    2.95582588906369    5.41835867126886
C         4.91874083578835    3.88004717979153    8.29476963655851
H         4.99457883401593    4.77452700158256    8.89550219692739
C        -3.55344198822274    0.13804838280829    5.28404141226573
H        -4.56741704758894   -0.22085926524626    5.34216767229277
N         0.37775294371236    1.25096562390691    5.01548758960097
C         5.28044213123471    1.52879854715278    8.00913682823373
H         5.63818108794523    0.58329827299663    8.38817627610038
N         1.25125813771609    0.23472008914755    4.80478516481624
C         4.35528299656623    3.94631870887773    7.03127438541498
H         3.99601675084669    4.89306884108905    6.65213482508464
C         1.08772175215073    2.41328808201497    5.06032182992525
H         0.64293055644183    3.37171089263317    5.21645548279980
C        -0.96892459629872    0.95506777492863    5.12183253561293
C         2.39699504455499    2.03738153750021    4.86482952588314
C         5.38194813484440    2.67196700201440    8.78534829827555
H         5.82068568756223    2.62106894338162    9.77069937382372
C         3.63734219855792    2.85737444814001    4.87011099297873
H         3.40467675622343    3.88655357524136    4.59488204125947
H         4.33320343752956    2.43409054230376    4.14376565078158
C         4.72133285881855    1.59433030097656    6.74609620908116
H         4.63303267809147    0.70494125279014    6.13979899124168
C        -3.26843362046583    1.49453943288161    5.40833943801788
H        -4.05723052407376    2.21267276574879    5.56585426156555
C         4.25920216458440    2.80633810982678    6.24799251109655

