54
CSD_code = PUHKIM | q = 1 | S = 0 | Stoichiometry = C20H30N3Pd(1+) | MND = 4
Pd       -0.55649881631008    0.64778128544569    5.95167912362693
N        -2.38792732773943    0.52455965651555    7.11100733182533
N        -0.26591585914641    2.00279992791490    7.40018387967734
N         1.47912801587752    1.21716601623125    5.63132583009449
C        -2.47567636233587    1.47426306517202    7.98026774375364
C        -3.60715604785110    1.72583618694936    8.93552620380549
C        -3.27148445219292    2.81231593534493    9.96019394873386
C        -2.70078416165785    4.06826785112311    9.29744852156425
C        -1.44385681576023    3.70875320539829    8.57581438917184
C        -1.37410966560606    2.43367213792409    8.00425952360245
C        -0.33080967261453    4.53442211292498    8.45038755069245
C         0.75013598961251    2.83705977983976    7.16515416275945
C         0.77531194496487    4.12621690154751    7.70693857779489
C         1.98733539118857    4.97565765669587    7.49177952449969
C         2.79930344920813    4.50567939253413    6.28541645277194
C         3.09823448722321    3.00036459855642    6.34519548599638
C         1.79297587678627    2.26393797803701    6.31705495231890
C        -3.28866495482224   -0.60728280947186    7.08482328832784
C        -2.40195799567008   -1.85672773738363    7.05160171183126
C        -4.21392625329586   -0.52946599137079    5.87010158621790
C         2.47719348392357    0.40819967110139    4.95854918008741
C         2.07998497849566   -1.05116713909611    5.18948391516192
C         2.55739661317677    0.75517101238954    3.47140450396876
C        -1.15043410364454   -0.03195654569534    4.10309132091715
H        -3.87853844699605    0.80862434167620    9.46271744508415
H        -4.47982035991973    2.02814672422532    8.34642623778293
H        -4.17370182502868    3.06724549950859   10.51588817144766
H        -2.53893897551192    2.42500789683649   10.67213622826778
H        -3.42624317675813    4.47283968543027    8.58469260436282
H        -2.50438560231214    4.83991064495469   10.04234882253562
H        -0.33755967983637    5.51430972010394    8.90395958253206
H         2.60493418744712    4.91656241859401    8.39485168245188
H         1.69790942769238    6.02042173468554    7.36835673055944
H         2.24534881906492    4.72166657330109    5.36884808526011
H         3.73967667086065    5.05528471404984    6.24381642717584
H         3.74260949725071    2.72254830540794    5.51256435099390
H         3.62120202062264    2.77006586922427    7.27856661610864
H        -3.90871487065013   -0.63080022212366    7.98977151072130
H        -1.56526971261697   -1.69296123202128    6.35307239905654
H        -2.97174433467123   -2.72163992741923    6.72629833005852
H        -1.99216683615641   -2.05882813317876    8.03940059796340
H        -4.92759919407771   -1.34729504056430    5.90440070474791
H        -3.63990637538834   -0.60237955182087    4.95225056941384
H        -4.76419351678202    0.40874794748649    5.86833384529385
H         3.46143475612694    0.57690422627234    5.41646424528096
H         2.77598488997246   -1.71497117760372    4.68492475643117
H         1.07225052816159   -1.23011945625677    4.80028141547482
H         2.09474379268076   -1.27868444303512    6.25699310044225
H         2.83007509109952    1.79885269946347    3.33228942518247
H         1.60117695381491    0.58227225612649    2.98682806677279
H         3.30796420772806    0.13383137164410    2.99207750568500
H        -0.39635113469300    0.14420995507474    3.33229639273346
H        -2.01722739012956    0.60817612876225    3.87205449628632
H        -1.46004715279817   -1.07817367743055    4.03700094469072

