40
CSD_code = PUHLUA | q = 0 | S = 0 | Stoichiometry = C15H20N2O2Pt | MND = 6
C        -2.11229015208630   10.01473052431603    2.17035440020557
H        -1.09690817963203    9.87081050184801    1.79444411869360
H        -2.80392155485012   10.14774386865305    1.33805869895223
H        -2.39615885344994    9.12494239088339    2.73200898228995
C        -3.53872877322642   10.90273801691199    4.47883419951115
H        -4.13333244843529   11.73905284330537    4.85554336485801
H        -3.12356299816305   10.34831550439293    5.32207849237200
H        -4.20397522764709   10.24341128219300    3.92259099740241
C        -3.25338132276311   12.74689834266882    2.25744922398954
H        -3.36202223315814   13.72842348749884    2.72648337692661
H        -4.24520096387460   12.30668761466005    2.16269460623938
H        -2.85575232364242   12.89575052648441    1.25164195156318
C         0.56379304161765   10.29297758708675    4.40059048955551
C         1.47513862777576    9.63603628582303    5.44536218220501
H         2.50731916159235    9.66584270541026    5.10738661913826
H         1.16444708126622    8.60160691385215    5.57395579175914
H         1.37117580074749   10.14890302686114    6.39924024477068
C        -1.76716793737549   13.28936986923305    6.06370674539955
H        -2.82544176098394   13.10365183048064    6.18708621169477
C        -0.96790253055370   13.57431969097682    7.15789700692595
H        -1.39115156198697   13.60009326051693    8.14930034012285
C         0.38353459250071   13.79685705348130    6.94674818836700
H         1.04960871144852   13.98906153177559    7.77473209599190
C         0.86879028906954   13.75981142031397    5.65227386475983
H         1.91978486971704   13.90347171994615    5.45959653004377
C        -0.00561528230483   13.47847613563885    4.60400905547370
C         0.45694725829600   13.39581904435437    3.21020071684955
C         1.59905892707521   14.05777629948328    2.76427612100528
H         2.16163227432080   14.69020277086881    3.43283799273788
C         1.99555149368197   13.90434445724811    1.44856301039284
H         2.88333374652490   14.39964650308464    1.08440752297361
C         1.23456335136926   13.10319971185518    0.61222245134455
H         1.51292731699507   12.94897241370465   -0.41800840734846
C         0.10221114641444   12.49731425420982    1.12875790712044
H        -0.52100886211707   11.86610335696463    0.51032220777132
N        -1.30417774155189   13.22940590188569    4.82387380533980
N        -0.27237516753041   12.63615270327139    2.38893755392914
O        -0.61141530344750   10.53049502318570    4.80050290703565
O         1.00353089763603   10.55657991879984    3.28245240834475
Pt       -1.95255740927116   11.63910370585845    3.40848602329396

