62
CSD_code = PUHNEM | q = 1 | S = 0 | Stoichiometry = C26H24AgN6O5(1+) | MND = 3
Ag        7.73323361781877    8.30631396070583    5.02557614493430
O         3.66199856843987    7.29460260931533   -0.75009592468210
O         1.90886196073018    8.17894958443582   -4.19786901094369
H         2.42562523034186    8.23538193617765   -3.36849336414510
O        10.16310167888547   11.43569846556628   11.01091719364190
O        12.34830185582594   11.71726244718141   14.31451621937821
H        11.96150864349413   11.40764677968303   13.47035478502050
N         6.48133322952170    8.53305430154798    3.15088800075421
N         4.04607323036688    9.48804777754902   -1.19741690879381
H         4.41594794460660   10.38212408301703   -0.86905312236011
N         3.32879858937526    9.45701825419117   -2.34136505068692
N         8.79390232829544    9.01492175271265    6.88353481378224
N        11.58710561980010    9.66862366463419   11.07121739169651
H        11.97078009279021    8.85363968102341   10.58928819132966
N        12.15930558821325   10.07394060029556   12.22510615789095
C         5.41466695786237    7.73736887631995    3.02429376965398
H         5.17407167407170    7.11762891132872    3.87874097430721
C         4.64853260104453    7.68443298900304    1.87798841989964
H         3.80808620553782    7.01350671557771    1.79371154517115
C         4.97511416086508    8.50492361658210    0.79916575987874
C         6.08312130504856    9.33724098168978    0.93298454929129
H         6.41455532940548    9.97434408651498    0.12785441504972
C         6.79986711250201    9.31280710022435    2.11649870400836
H         7.67054190493365    9.94325788115962    2.24075112310677
C         4.16191307663298    8.35493783309934   -0.45334370120061
C         3.13691745245464   10.53137363205876   -3.00685217058316
H         3.54504124441023   11.49014429737107   -2.66200091534605
C         2.38760528479031   10.54934651228099   -4.22956163728407
C         1.80732103154280    9.37841754014023   -4.77060037202111
C         1.08879855841495    9.47237354453754   -5.96574673805229
H         0.65404459834753    8.56875243936405   -6.36216920157206
C         0.94353857042983   10.67985506924685   -6.61078018733262
H         0.38446449672456   10.72965946312067   -7.53240890660111
C         1.51229480811436   11.83638616694606   -6.08242244667897
H         1.39480938438809   12.77983622339792   -6.59155514037367
C         2.22292888311843   11.76628142863674   -4.90888357919542
H         2.66795671145881   12.65780029253138   -4.49041051572128
C         8.85953897115154   10.31251648152576    7.20001672655310
H         8.41709151881399   11.00394880153167    6.49523934412564
C         9.44756165979461   10.77317558051974    8.36036684912512
H         9.46640025549477   11.82467054709094    8.60051149469325
C        10.01596093539229    9.86288893310735    9.25019518238583
C         9.94150898291938    8.51131543184366    8.92337590314527
H        10.32241681848433    7.74508870284687    9.58059672596187
C         9.32504377582936    8.14169386867497    7.74163420359438
H         9.24983288529065    7.09710860700827    7.46947349455360
C        10.58397091598479   10.41088463657589   10.52724936095901
C        13.14960605696634    9.42744075401261   12.71016549814395
H        13.55202293576366    8.54346241828484   12.19861361130374
C        13.78480593102876    9.80870272889514   13.93806315089297
C        13.35884771477066   10.93145602282918   14.68540295587114
C        14.02461505471317   11.24157946130010   15.87468220167334
H        13.68504460585213   12.10106134101356   16.43024581533569
C        15.07696994936948   10.47256252326251   16.31760222278665
H        15.57630773673997   10.72958636496651   17.23904002896073
C        15.50120266455207    9.36609366054146   15.58543758709740
H        16.32644877676522    8.76731287934889   15.93697531506345
C        14.86102922441006    9.04374624513931   14.41358963149176
H        15.18261015663525    8.18736211159381   13.83806148676256
O         7.88500792452098    5.83574275815147    4.73649922238577
H         8.20459567698208    5.14654269142127    5.32305287947437
H         7.68008934111122    5.41315494946001    3.89894984253345

