92
CSD_code = PUHQIS | q = 0 | S = 0 | Stoichiometry = C41H41FeNO5P2S | MND = 7
Fe        2.41683290903933    9.46094084972990    5.81611244403163
S         4.34374663789827    9.18246233788811    3.14474724070032
P         1.26017049010417   10.00995242582897    7.55144516960284
P         4.07692459817463    9.02568164554281    7.12470837824566
O         4.33373398844678   10.61507103298561    3.31956712070132
O         3.65533690339365    8.67543387482923    1.98618026535128
N         3.67670626423875    8.58888816300627    4.51149280306583
C         2.42582732454438   10.22302561768035    8.99040390344175
C         3.60472535210168    9.25895802399153    8.91613884711579
C         0.27397564762736   11.54196881506219    7.65544827217171
C        -0.34468033777378   11.96633434528838    6.48277593267839
C        -1.15188712083667   13.08970006612544    6.48648633956302
C        -1.34248184865593   13.80222212167059    7.65884793229381
C        -0.73324607857440   13.38143374081703    8.82925581739672
C         0.06680213745348   12.25258588115672    8.83357594459275
C         0.01516182135722    8.82319344981247    8.17661342703737
C        -1.30052241120605    8.93106186288866    7.73021298928341
C        -2.24898194816980    8.00159968226758    8.11380755695047
C        -1.89558104499888    6.94588852064178    8.93887800432117
C        -0.58782074823250    6.82406109943563    9.37624663922620
C         0.36302699353544    7.75300627879435    8.99274806192671
C         4.79830224654275    7.35597629282438    7.08442508530879
C         5.95226346247899    7.12040451932286    6.34284916106818
C         6.43077463915882    5.83302560097808    6.18864631214304
C         5.76046618466968    4.76705985973369    6.76328993244869
C         4.60298450161479    4.99130597369929    7.48986215654553
C         4.11911882348334    6.27639232036214    7.64118289104038
C         5.58880799921039   10.04333335292349    7.05494410111615
C         5.69569183512751   11.07630157342401    6.13585837940486
C         6.83393911976907   11.86682384336277    6.11118492185422
C         7.86991532963973   11.62357376854313    6.99590223476900
C         7.77374913292740   10.58104883974827    7.90587933206440
C         6.63866274195532    9.79477481624561    7.93907494513282
C         6.02824264152042    8.59191736565112    3.15008464183417
C         7.05596138647232    9.44753703380673    3.49427027832762
C         8.34620539763987    8.95613592426676    3.57597617946343
C         8.61259610246885    7.61623524192267    3.30643894099498
C         7.56148955062387    6.77884911346241    2.94921336730992
C         6.26549022659947    7.26070576832453    2.87456620664907
C        10.01700747269077    7.09914793799527    3.39122168775391
C         3.15970169821185    7.34014085576913    4.60498698251361
O         3.57404537438027    6.32251472620935    4.08777840795506
C         1.97348582622518    7.46349725272725    5.51839052023816
C         0.89818239119952    8.24196557741984    5.03644934509590
C         1.11762998180304    9.26451950459753    4.11080025864448
O         0.10347252012980   10.11660131565813    3.78533000999213
C         0.37150395201838   10.94209140481402    2.64366561457596
C        -0.58705050120179   12.12488009243205    2.71121523361652
C         0.19462127863453   10.14428591376647    1.35349451564798
C         2.60322390151611   11.14886460911779    5.36653389090542
O         2.55113697547861   12.26028325675773    5.09639090708885
H        -0.07822832022008    8.16139972456866    5.50321673935018
H         1.84410629432816    9.13102793677853    3.31754220758415
H         1.40906715027059   11.29856875022719    2.70776901219232
H        -1.61027820948560   11.76452913706522    2.78713338945958
H        -0.36213240131119   12.74219487661227    3.57624237583779
H        -0.48817553697852   12.73064385448327    1.81524789074104
H         0.92800646949128    9.34296711503750    1.29669721091671
H        -0.80484619903144    9.71545371783892    1.31484218414299
H         0.33726952194542   10.79546921913571    0.49575241743243
H         2.79352235295395   11.25137392606538    8.89388517533076
H         1.89135873501554   10.12583136820851    9.94050669971231
H         4.45378177207004    9.64739522053641    9.48473810910958
H         3.34407706352712    8.28492595269659    9.33356999933615
H        -0.18522010407366   11.39992236798628    5.57614204179109
H        -1.63539883891351   13.41190686673228    5.57589314992537
H        -1.96747607259881   14.68296004448109    7.66235808898799
H        -0.88576416851305   13.93294168840352    9.74566742672749
H         0.52234255349783   11.92960530685036    9.75746681411041
H        -1.57666672396394    9.75127079360666    7.08201282729028
H        -3.26685720410456    8.09794358344132    7.76553031793639
H        -2.63619088721683    6.21880125370017    9.23657994049439
H        -0.30615345926769    5.99970885356453   10.01548897639333
H         1.37982816529998    7.64438407272311    9.33628948426440
H         6.46886423850924    7.94778327815821    5.87700194245494
H         7.32349470206477    5.66420545045693    5.60527534055102
H         6.12957826615245    3.76072883924344    6.63326821927479
H         4.06756265899917    4.15977658767258    7.92498596453421
H         3.19511207823523    6.43845093968765    8.17905783480956
H         4.89928683636290   11.22775328154309    5.42410426433982
H         6.90966129496247   12.67269446012893    5.39617587467159
H         8.75704628862153   12.23968139779508    6.97618215024207
H         8.58670796281616   10.38270492090981    8.58955918921823
H         6.56850816008993    8.97232988460308    8.63968566487717
H         6.82675466644124   10.48200138865827    3.69095178709065
H         9.15658605471948    9.61573387297286    3.85199633897057
H         7.75694015140781    5.73861903401371    2.73167974360192
H         5.43386558528114    6.62031924916933    2.62772773002386
H        10.60975450993477    7.49167108235961    2.56528938134661
H        10.48809718971881    7.41885585972225    4.31909210248621
H        10.03766510132439    6.01358502768521    3.34066841869035
H         1.73925057919488    6.60671632320594    6.13762604250842

