59
CSD_code = PUHVOF | q = 0 | S = 0 | Stoichiometry = C22H27Cl2IrN6O | MND = 6
Ir        2.98931205970968    4.41879096130012   20.23489606719482
N         1.99125809362430    4.09822009659327   18.43110862979183
N         2.36586730541220    4.87467614320013   17.40168743434001
N         2.78867614519546    6.45912362921873   19.80773673092741
N         3.07677731944611    6.82232670714449   18.54670690729334
N         4.70768202960688    4.50614958712312   19.14251019138494
N         1.41099103623509    4.26882473672903   21.35954983938738
Cl        3.26213585392963    2.13727271150813   20.59643242782260
Cl        4.11809743654832    4.84365071797862   22.23193734498024
O         5.68799042530542    5.20489583316409   17.18150961268324
C         3.42185561862018    5.83207014861057   17.56555946194240
H         3.60682542452480    6.32680973785124   16.61010968703964
C         1.93207964219214    5.19389053555233   14.96381751310746
H         1.69537425070565    6.25706442622453   15.01189918832184
H         1.29574175220638    4.73244149899047   14.21436515647338
H         2.97069884185278    5.08425239032551   14.65298504785230
C         1.70545562717939    4.53392300461703   16.27318404273057
C         0.85458404243551    3.50536685798502   16.61960093340913
H         0.17652288811424    2.98694930469699   15.97373212990293
C         1.06262008820874    3.26135975641335   17.98349140049411
C         0.37563740730589    2.26734838319752   18.84189427042614
H         1.09946006555331    1.79219637245098   19.50181320295217
H        -0.10989120273512    1.51738846375387   18.22413869376005
H        -0.37744516178118    2.75850065968245   19.45761636922520
C         3.42170643723477    8.86468197590808   17.15471282403598
H         3.39005274421601    9.93815509267057   17.31679723166473
H         2.71153066710451    8.61279366064857   16.36662296995261
H         4.42246671154989    8.59270496658131   16.82004473680353
C         3.09073605990557    8.16728634416402   18.42152488250725
C         2.76417078947251    8.67416737750990   19.66206219681675
H         2.67866605527934    9.70621824551384   19.93255607636276
C         2.58075742105745    7.57056507093317   20.50489447419654
C         2.19114286117371    7.57565928720136   21.93469074086176
H         2.83585786876461    6.89775164098630   22.49210480317279
H         1.16321455894480    7.23178272177516   22.04571905610545
H         2.27403480279962    8.58053477065488   22.33811126708686
C         4.76556060341698    5.10698214242252   17.97767316753315
C         5.96046949077198    3.87911116652858   19.59009438203346
H         5.80297017470126    3.57908713204996   20.63137534221531
C         7.06565105545518    4.91559824621209   19.57659879283379
C         8.29132132275747    4.71562500482383   18.95937439423267
H         8.50253104778794    3.78918171261921   18.45066764434085
C         9.25696783540236    5.70788350806138   18.97698016030859
H        10.20565401531788    5.53695231563779   18.48758031883285
C         9.01373317814788    6.91371623869975   19.60859511202357
H         9.76830855443024    7.68764558740021   19.61612383538669
C         7.79521385411501    7.12016443646117   20.23275441946095
H         7.59423893010864    8.05596779358910   20.73578033896733
C         6.83323028063495    6.12879487624836   20.21806455069394
H         5.88950552667113    6.29033277415140   20.71905076369508
C         6.24321342696163    2.62347649056345   18.76851093145182
H         5.38240204655514    1.96096272031254   18.82754189563279
H         7.10750186137867    2.10129076986853   19.16997872379244
H         6.42061038848454    2.88600535571124   17.72874542995029
C         0.81977681951945    3.93333993957780   22.28678991575461
C         0.07729341190922    3.52542494954916   23.43486089216200
H         0.62676676022253    3.81852923201010   24.32961858677292
H        -0.03110936025134    2.44091989049630   23.42266961061843
H        -0.90705519139277    3.99271389814745   23.44054724829268

