58
CSD_code = PUHWIY | q = 0 | S = 0 | Stoichiometry = C26H22FeO7S2 | MND = 7
Fe       -0.18710862172082    1.32725519065119    3.75210575837989
S         4.05635605452716    2.85251756683041    8.03303318691996
S         4.62950847096907    1.64088361113911    3.37519580723349
O        -2.91924464302403    0.32141341683747    3.76246451425895
O        -0.66710403144756    3.80680305344105    5.23886718119935
O         0.31490795768680   -0.42840831397743    6.01029883277520
O        -2.36571556171763    1.48316207074406    0.84250319541944
O        -1.98166323634161    3.69635630446983    0.95201753081783
O         5.54665719528563    4.21714782775385    6.39090263389562
O         4.12475647854084   -0.90713779675961    3.14842664152318
C        -1.84084784106235    0.68688644376227    3.71085417965096
C        -0.45510111865256    2.85088999540327    4.65255555089578
C         0.13717097585401    0.24064253495558    5.09920236133761
C        -3.25098437355427    3.92319119502874    0.35887396435491
C        -1.65306637365519    2.40777736421215    1.15932161645858
C        -0.33899706329178    2.28084227256886    1.81866117654697
C         0.31425405954228    1.00777747117509    1.67486992458794
C         1.46059072598789    0.75636018577767    2.43329879332885
C         1.90145353138323    1.77148488533910    3.33954207451978
C         3.02665882990022    1.43510380996275    4.27725716045934
C         3.04757149218115    2.31700835597641    5.52009651835114
C         4.09649852870937    1.85322345683639    6.51737339809449
C         5.08538873343716    4.21437078275775    7.50362807986889
C         5.30504784851022    5.25269288774811    8.51947871919982
C         4.69938978703670    5.22074700331388    9.77312843027218
C         4.95203559862604    6.22636569387638   10.68616954864425
C         5.80737985545619    7.26767335078393   10.35917305547283
C         6.41237161348876    7.30556704806442    9.11271354473645
C         6.16321103482035    6.30462878523043    8.19463262833709
C         4.92453882947945   -0.04313565093249    2.87963933438917
C         6.17841395768813   -0.25344138666608    2.14450016329208
C         7.09898518574983    0.76701641858122    1.91672099701040
C         8.26097451337615    0.50291291301413    1.21782830584056
C         8.51473037404962   -0.77463358646168    0.74199234587947
C         7.60334940571694   -1.79451126157426    0.96656506186610
C         6.44010637147494   -1.53816907473960    1.66497481709619
H        -4.04020098897764    3.49198900818271    0.97833515382565
H        -3.29485432235910    3.46580882354085   -0.63185272576291
H        -3.36563831727908    5.00161918891949    0.28754858643723
H         0.23994029831314    3.19872221691295    1.76093915518885
H        -0.11500929983095    0.25568017157702    1.02219191241850
H         1.95137910765960   -0.21054670376851    2.39947446925626
H         1.99446421119947    2.78668157278188    2.95461329592006
H         2.99890814383852    0.37662163334087    4.55472567643205
H         2.05645502113224    2.27730534549342    5.98236737035099
H         3.25220283758228    3.35135731778825    5.23406275506818
H         5.10127843143314    1.95471797642772    6.10384746403839
H         3.91864455479236    0.82559969606566    6.83326790277976
H         4.03378596676530    4.40864124889012   10.02439980162095
H         4.48133316410894    6.19980836660910   11.65744181649001
H         6.00209317876058    8.05031972601512   11.07739949786320
H         7.07844688169310    8.11638059951821    8.85818752490558
H         6.62480854790988    6.31514494515301    7.21857000656739
H         6.90083150017990    1.76036894258109    2.29078804438139
H         8.97350880065262    1.29500379421493    1.04339658523661
H         9.42479669763489   -0.97513423082440    0.19631344590536
H         7.80127373266624   -2.78941523075509    0.59673514764654
H         5.71787730710258   -2.31893923377346    1.85108008051404

