74
CSD_code = PUHWEU | q = 0 | S = 0 | Stoichiometry = C26H37NO5P4W | MND = 6
W        -5.21247917477028    2.15459245740501    6.58495673904248
P        -3.59104781350061    1.18997611192952    8.23929524510551
P        -2.60723859138383    2.62935182517575    9.53867131258588
P        -1.45385638267877   -0.05881008511469    9.96541077216657
P        -1.79200242028485    1.78600866522552   12.46473726143163
O        -7.20061130568172   -0.27820984466977    6.53683469561020
O        -7.28588267431262    3.33672137923207    8.61454234412063
O        -3.38207195203620    4.70973873346056    6.71808620170434
O        -3.67874814382086    1.14926841898011    4.03718168726669
O        -7.08518919641182    3.54800912706907    4.51293608290459
N        -0.38450560052420    2.30242163007702   11.75645614296678
C        -0.98840520762506    1.69430536559969    9.52054324931089
C        -0.06725826113254    2.26786488601147   10.51890254054913
C        -2.61326574154411    0.47956498126829   11.33681229200941
C        -3.17938691082175    1.87653531052702   11.14447350419326
C        -2.63901937616856   -0.17636976088391    8.55909505843307
C        -4.52385442431538    2.50679804418678   11.58708346600373
C        -4.69234890984427    3.86906028748327   10.89647315624278
C        -5.71736059515688    1.64107658481164   11.17387511626516
C        -4.56771509969972    2.81338809521234   13.08944315105786
C        -3.15679536628677   -0.76750973330551   12.06994796736261
C        -4.15162337264782   -1.52861553877566   11.19045102528698
C        -3.80643994705019   -0.49234708579346   13.42736509158040
C        -1.95122114571695   -1.67927180020597   12.35012287361934
C        -2.58772593292469   -1.38353763457763    7.64455977850067
C        -1.72550308692196   -0.96405569197386    6.44230418105307
C        -1.91526169699932   -2.59222339912738    8.29948731070504
C        -3.98246889235926   -1.77408944571187    7.15359392272481
C         1.26946209186340    2.82567227551353   10.08079515982780
C         1.02193338777055    3.98727556931576    9.10953032878075
C         2.04684822862678    3.33745395779641   11.29411426428004
C         2.07737675940128    1.71667359460760    9.39451869321569
C        -6.43181380411372    0.56656203852758    6.55372846137005
C        -6.44859264829070    2.89450416934392    7.97533991836116
C        -4.04008868484405    3.77888763554811    6.66158633228452
C        -4.17111304187269    1.47381830555735    5.01567694716516
C        -6.40024369128430    3.03527561698202    5.27089819834531
H        -0.57733155428328    1.70809722761653    8.50515984011201
H         3.06723577934842    2.08826299571968    9.14052557462350
H         2.18803618885278    0.86522397651423   10.06301436282907
H         1.59911428595636    1.37586179416227    8.47912764799587
H         1.48212881109381    4.11157747182177   11.80569191825675
H         2.22336363665186    2.52893548125116   11.99791312173710
H         3.00313826227262    3.74714029409685   10.97830791843947
H        -2.23517227952184   -2.48572713875114   13.02256727109696
H        -1.56806320373408   -2.12892508550720   11.43479566794567
H        -1.14997798881624   -1.10658264179640   12.81805955639242
H        -4.75463109192606    0.02354199216219   13.33055999740350
H        -4.00457770406870   -1.44061696852520   13.92412579290697
H        -3.13658139957924    0.08363558994059   14.06387527284906
H        -3.70841336846615   -1.74149110000892   10.22216614787276
H        -4.41625978094069   -2.47168859447736   11.66514553471858
H        -5.06226487018135   -0.96200648537470   11.02494661978779
H        -5.56613494728517    3.15058673933666   13.36130935877078
H        -4.31799465547388    1.95829871190406   13.70419151217564
H        -3.86249727456240    3.60976159181227   13.32209963701722
H        -3.82328973416231    4.50350650570559   11.07290157782910
H        -4.83910394213752    3.75872204436030    9.81879632979259
H        -5.56777445939312    4.37549192214185   11.29970269918096
H        -5.58911448433837    1.27745713205228   10.15078185440500
H        -5.85029085020740    0.79092459519920   11.83459162061687
H        -6.63056750078453    2.23198268714672   11.20829922219686
H         0.49361839452737    3.66094681381265    8.21631045356022
H         0.42928904856527    4.76042014946216    9.59415796546993
H         1.97190069522132    4.41965590521626    8.80425681538259
H        -1.79577467907972   -3.38533301476388    7.56423745868971
H        -0.92664823570272   -2.32678716129544    8.67342236911808
H        -2.50651078391699   -2.98721237455060    9.12215055138516
H        -4.41215971071433   -0.97095034057600    6.55530518070641
H        -3.92560509252141   -2.66694014646219    6.53470383980480
H        -4.64700633369827   -1.97750728510088    7.99132800610724
H        -0.71572485632297   -0.72040574143674    6.77003379166132
H        -1.66788063165716   -1.77488047204135    5.71955698076766
H        -2.15145506363804   -0.08954211734680    5.95255005769919

