67
CSD_code = PUHXUM | q = 0 | S = 0 | Stoichiometry = C22H32CdN10S2 | MND = 6
Cd       10.27622259230110   13.34437971330529    8.75327438565188
S        12.47803610448869   12.08852120638418   12.52125670347802
S         7.56510837846549   14.60821661116315    5.35046640219181
N        12.40278905110086   14.34904657642975    8.57967820347250
N         8.13552466110405   12.48248409380536    8.98899568289616
N        10.63875806755417   12.02298030593521    6.89279656753153
N        13.97140630536132   15.30292019410790    9.79367842934881
N         6.04731247309836   12.23422320118848    8.34557133324289
N        11.06539014205749   11.93789254659826   10.14608581940735
C        11.65649713984335   11.99999536218740   11.15633718174693
N         9.93478605343291   14.76730219504339   10.60094145905242
N         9.44831118510399   14.75822659763766    7.37229421069451
C         8.65550298077782   14.68817934537051    6.51206819293027
C        13.29409637468342   14.17172151664134    9.52501788479245
H        13.49170347877904   13.24306080435475   10.02363657504967
N        10.34598952048803   11.59700367263449    4.75442142068085
C        10.36443238529443   16.04492626393018   10.78323575224895
H        10.61403697659476   16.67174875419707    9.94962934333939
C        12.50594329647147   15.65615091304082    8.21340462846774
H        11.88427722914735   16.06222848948409    7.43918952667503
C         9.69884073785006   14.29367502150965   11.80087786594168
H         9.33940316791510   13.30473970032996   12.01001122991025
C         9.75740166411017   11.81740315063055    5.94341178110712
H         8.69197802411740   11.81458186605032    6.07397588968355
C        11.85728867908844   11.93909843004653    6.29342496696154
H        12.76203876695679   12.06344827754847    6.85626287355959
C         7.88346885441909   11.15443226858829    8.83388334427314
H         8.64404306089151   10.42295847302858    9.02750297873217
C        13.47214914962569   16.26312481841785    8.96164978353321
H        13.84118452928072   17.26868567114386    8.96919329690757
C        11.69185803717785   11.67737527226278    4.96502342660576
H        12.39924148586444   11.53955688772423    4.17280507790831
C         6.59092569895931   10.98405793718401    8.43178683943850
H         6.02295491018463   10.10274967375688    8.21275141442882
C         7.01928107086706   13.09984595404211    8.68694613620801
H         6.87900410036516   14.16344689007198    8.70980411564440
N         9.95170282283958   15.20522886290857   12.75679099518480
C        14.91996593710287   15.48090213961044   10.86246526658631
H        15.60635879675679   14.62953838039909   10.86957936973059
H        15.49157670478748   16.39235888946583   10.66894496443691
C         4.72568462465345   12.55726318255505    7.87164647969408
H         4.01205148667422   11.85551567454181    8.31509716926210
H         4.48253823585782   13.56716761342762    8.20985073662199
C        10.38374367097683   16.33091655014597   12.11695794966073
H        10.64951928720013   17.22035582055184   12.65133065779843
C         9.68864910052043   11.43088499810363    3.48348912189852
H        10.27605144340554   10.73557252632271    2.87612652840902
H         8.70259428628363   10.99527979514982    3.66304206266790
C         4.66135808470762   12.49020175615099    6.34836984505494
H         3.67237170689422   12.77898057899636    6.00448044191112
H         4.87184806921527   11.48135341503366    6.00066000741004
H         5.39373205497522   13.16786527925753    5.91423527279814
C        14.19879855601649   15.57234006052372   12.20489643141819
H        14.91733552176287   15.72314002353684   13.00571741586343
H        13.65109835486931   14.65206598126763   12.39651642523864
H        13.49405668373405   16.40130779662068   12.19763132727343
C         9.86926280764063   15.01480934820092   14.18252799315389
H         9.42097709876729   15.90794846354765   14.62983608861558
H         9.21425394382135   14.16110467506784   14.37079756462796
C        11.24703870786383   14.75392928553739   14.78383486100496
H        11.15744021474659   14.56913403474070   15.85035577672667
H        11.90184667999639   15.60818407145353   14.62964481777300
H        11.69796786167191   13.88245546213810   14.31465401403472
C         9.54053006861071   12.77050923992710    2.76765869373128
H         9.03385158425478   12.63101825012707    1.81686190633436
H        10.51593900532406   13.21532595685934    2.58532673715084
H         8.95577027483405   13.45545323592424    3.37788235905348

