46
CSD_code = PUJCAY | q = 1 | S = 0 | Stoichiometry = C12H24Cl2LaO7(1+) | MND = 9
La        2.45427660477264    6.39425520153805    1.11692212329904
Cl        3.78074140672509    5.27017294432778    2.94411021688012
Cl        0.77442561538782    6.37550829914090   -0.96634663642788
O         1.46418742580486    3.89386065337835    1.22291468925027
O         3.45590832337371    4.47550480730111   -0.50196282683201
O         4.27861158098449    7.10972674871214   -0.76495640133513
O         4.18183776133041    8.33427526827100    1.68167817331334
O         1.86044050459046    8.01074461814307    3.09880189735549
O         0.09540196744013    5.96587563493129    2.30860114900115
O         1.30308596110690    7.57710410587098    0.01179419894992
C         1.88039858429138    2.89988394856017    0.29946792392235
H         1.29613996942827    2.97925095840060   -0.62919532852958
H         1.75117781337613    1.89884094533680    0.73004527941856
C         3.35613631517264    3.15079301133484    0.01382158339777
H         3.93569254564584    3.06306442276780    0.94297698519296
H         3.72308327167493    2.42633246846153   -0.72263769851004
C         4.69859176914775    4.74522295291713   -1.13860188362113
H         4.89484111994902    4.00084515507544   -1.92126538943916
H         5.51746381561391    4.71944761471174   -0.40521985568044
C         4.55280346331645    6.13419314149130   -1.76094933408379
H         5.44771981119785    6.39961617872920   -2.33301296762891
H         3.68078637839082    6.13074055259814   -2.42473839127780
C         5.43763743016388    7.75026052796649   -0.23802708058208
H         6.05904768836338    8.13716853735884   -1.05522836084207
H         6.02608592841046    7.05472823521380    0.37686490859973
C         4.94836379422115    8.90162798298437    0.63002228457194
H         5.80564589374942    9.45251469414809    1.03888509760467
H         4.32353618734453    9.57930024270120    0.03113351459674
C         3.79358773404144    9.29548157325240    2.65475339814577
H         3.15425889738255   10.05969573928004    2.19013993522691
H         4.68229822314840    9.77084753472817    3.09055074142275
C         3.01154447894719    8.55915654731517    3.73332394445694
H         3.62665666637046    7.75396486886092    4.16073601622654
H         2.71174677048802    9.26017902891967    4.52233413148460
C         0.90567275352638    7.49817921130464    4.01972364284750
H         0.58455653665980    8.28960847615863    4.71024416980395
H         1.34201056231508    6.66951792136856    4.59654675831815
C        -0.27843472989804    7.02571630316504    3.17692457331207
H        -1.11718711035043    6.72795489681044    3.81535463487336
H        -0.58468327296289    7.84683727394175    2.51924472874847
C        -0.02261336019648    4.66624819879210    2.88547412531848
H        -1.01470485009539    4.54131269998634    3.33620159728034
H         0.75545375408407    4.49978963410633    3.64299558417052
C         0.16521975908899    3.66854901536087    1.74925952389178
H         0.08009889603271    2.64417279280368    2.13350867625855
H        -0.59325063955662    3.83512843147212    0.97078594764922

