48
CSD_code = PUJGUY | q = 0 | S = 0 | Stoichiometry = C20H24BrCuN2 | MND = 3
Br        3.05714449472607    3.22037209714310   11.31016454957838
Cu        1.45827846328474    1.94090504820187   12.25486880974378
N         1.25646938922269   -0.04100778477228   12.55274096920878
N        -0.55203105289556    1.92487678651156   12.10930877481467
C         2.15166527632394   -0.97620663392674   12.82804503102853
C         1.98122397976385   -2.28589116867933   12.34364928876498
H         2.73531814988004   -3.03085944924061   12.53231634815343
C         3.37426017871829   -0.60076204893987   13.64371134901816
C         3.07028664573722    0.57419381369891   14.57721521719645
H         3.95971271822840    0.83428231171978   15.14507428439795
H         2.27162334525158    0.31781767629568   15.27046697376737
H         2.76596512375083    1.45529907034930   14.01210422886362
C        -2.59264593287299    2.70550180322970   11.19513644370077
H        -3.26922746703688    3.52491848247701   11.02153697766397
C        -2.23356329082238   -0.92565828941606   10.45792596843233
H        -3.14349512072616   -1.12072483694392    9.90963560850767
C        -2.00048362999504    0.39629385441992   10.92255608472588
C        -1.41896356663947    2.91098665973436   11.94320977678159
C        -0.81881483922827    0.69362802276766   11.63025402474574
C        -1.11102893487982    4.26806977041401   12.54674895891560
C         0.13669591911034   -0.34777899347468   11.86836625522024
C        -0.12862715962165   -1.64826718495493   11.39494463057778
C        -0.19868214066331    4.13200271287424   13.76859444737602
H        -0.67126517800891    3.52162417789468   14.53555797047714
H         0.01377466393695    5.11455441203368   14.18171653789915
H         0.75166008021729    3.67140133716122   13.49901953852945
C        -1.33149243523254   -1.91194240455214   10.68683049627902
H        -1.50190535758057   -2.91589527138990   10.32671899258229
C        -0.41024223489169    5.10720202535895   11.46791593872613
H         0.53354157517402    4.65394672736877   11.17765419260110
H        -0.20362208216833    6.10306812330331   11.85116947676527
H        -1.03535570288936    5.19811663439823   10.58183014357349
C        -2.88540427995685    1.46432223782027   10.69264939202306
H        -3.78949352622471    1.29344901913906   10.12623114900952
C         3.85029896596000   -1.78169770383419   14.50074088715535
H         4.60381707735530   -1.43310760719518   15.20281685619879
H         4.30414521829394   -2.56361055202979   13.89762061715735
H         3.02551121644873   -2.20762975925455   15.06904306695776
C         0.85541273034605   -2.62241237789994   11.63770292442061
H         0.71120659131693   -3.62758423058196   11.26857321169410
C         4.48390290244410   -0.20618435447450   12.65765745483445
H         4.19282566913287    0.66377901848782   12.07557973607252
H         4.69955884167151   -1.02282206184443   11.97146526797094
H         5.39190049390796    0.03931574737823   13.20222849224792
C        -2.39913138399871    4.97665539950992   12.98864094279537
H        -2.98721434170138    5.31632260305256   12.14022872429468
H        -2.14125914169781    5.85303168203985   13.57828216757594
H        -3.01265091047064    4.32030545861715   13.60305082097041

