60
CSD_code = PUJLUB | q = 0 | S = 0 | Stoichiometry = C23H30CrO6 | MND = 9
Cr        0.22113844775477    9.34374889385109    0.50772145159690
O         4.94353923833083   10.02833656962260    4.31164053908035
O         1.63035761953109    7.08214233282604    2.11856199092231
O        -2.67734054014318   11.06957728442937    0.70309964138747
O         3.10992904074739    9.37680714186343   -0.18749972385645
O         0.64863190535093    7.14044594114617   -1.43906280957892
O         0.12768954294561   10.89804181757227   -2.02967132157220
C         0.62048903378707   12.07107905296234    4.30269190482618
C         1.56076767680868   12.72076983071739    5.31366162145956
C         2.17406607813906   11.69088698204494    6.25348481496159
C         2.91216231074094   10.55030886221185    5.53014768455701
C         1.94673723624489    9.96193074418570    4.47399049315681
C         2.48300833905633    8.75158537793086    3.71270393147374
C         1.30068321829607    7.91524050401979    3.22157125503510
C         0.19633441453668    8.78913873082190    2.68418986590635
C         0.26928493001956   10.20089203911290    2.67861043900613
C         1.31930811799129   10.96949210877019    3.47748525469382
C        -0.70575819623477   10.90189679335685    1.96093388532588
C        -1.77668369866193   10.24836515710701    1.30747298995487
C        -1.87529811309654    8.85755001682610    1.37274938685318
C        -0.86254417472065    8.14136429083892    2.03699358843399
C         3.23676417253197    9.47715001710373    6.58265102979056
C         4.25457493249598   11.05846889768671    4.98310785681099
C         2.28986701883614   11.61844848372525    2.47643415292105
C        -3.54498772970741   10.50612135405332   -0.25766987917880
C         2.60736092345393    6.10294839001362    2.37185319638319
C         6.16295361395301   10.45448790543969    3.76771956160491
C         1.99762718586619    9.39526033344528    0.13606399145605
C         0.44345381147075    7.97326587475584   -0.66269978330092
C         0.13672121634697   10.32140682354700   -1.02423694195113
H         3.59034485265951    6.54443464633035    2.55960770591908
H         2.65560513630726    5.49448922175438    1.47130131325795
H         2.32633221257227    5.47372600586078    3.22604231036073
H         0.23138896142131   12.84754329271365    3.64311746694883
H        -0.22543460883895   11.63109708166695    4.83869242347058
H         2.34903723590724   13.27041795795313    4.79904423911924
H         0.99726275249578   13.44875269153024    5.90212232869352
H         2.86135545421668   12.18995037861750    6.94017654158732
H         1.37514772401361   11.24748999151059    6.85315422872339
H         1.09646740909477    9.59728576190397    5.07229926162224
H         3.12414675866131    8.14997519742896    4.35097498816340
H         3.07032275830668    9.05630682350862    2.84845250722651
H         0.92332940986650    7.28250380197970    4.05017425195548
H        -0.72351905823959   11.98312691232151    1.93992535052482
H        -2.72392269393448    8.33013700126432    0.95840434758622
H        -0.94240754834973    7.06387568423251    2.11241359221325
H         3.66957867257239    9.94697758333410    7.46355570973792
H         2.34024598064872    8.94219484803648    6.88725643474505
H         3.95971813904034    8.76701417216231    6.19427600883930
H         4.86220414325957   11.40999762062318    5.83533101418664
H         4.11938835925934   11.91097823762502    4.30934010460833
H         1.75680712435832   11.89948102155574    1.56940840771976
H         3.08440156734439   10.93790737761115    2.19037555399858
H         2.73746865753812   12.51937396167998    2.88420624686317
H        -2.98291062688972    9.92425745353464   -0.99550364403928
H        -4.02671112795412   11.34946331670624   -0.74871924371519
H        -4.31075111023885    9.87730857033026    0.20820246800449
H         6.01510803145202   11.25769395247936    3.03459550635807
H         6.84483592244024   10.81536484223080    4.54899906078220
H         6.60332193833586    9.59161603952777    3.27237344637763

