66
CSD_code = PUJMOY | q = 0 | S = 0 | Stoichiometry = C19H32B10IrNOS2 | MND = 8
C         7.99709021810716   19.57237440687905    7.25506850456647
Ir        5.99246957900718   19.98797166737415    8.16007537931965
S         4.92707340285748   18.64542838636090    9.81682958342728
S         4.79037769842012   18.88428164473340    6.41236730968956
C         3.98493092393662   17.50696719294544    7.25197434831784
C         7.59976928093763   21.63876737788335    8.25417070237916
O         3.37097898760195   18.54701274717512   12.24459998310197
C         7.61115126565100   20.94389530539379    6.99838801937031
C         3.01785921275519   19.64793934945805   11.51991740062609
C         7.83241527288296   20.69027408675626    9.27566586691439
C         3.71696695695959   19.83307056362667   10.32924932102199
C         2.04648960329456   20.57155687363353   11.87415017271719
H         1.47361099686947   20.46165459496038   12.77915947276296
B         4.97799185712631   16.31204522309637    8.00763092105614
H         6.12770946031459   16.54673546207638    8.03313872966430
C         3.96913553020718   17.41667813412774    8.84783525463485
B         2.54650798706711   16.85840672540558    6.59972750531198
H         2.14556500693633   17.33898443914312    5.60761443204489
B         2.54952798264470   15.04854458331941    8.83325039812858
H         2.03377420389775   14.17408790645305    9.42656095573739
C         7.43056265969417   23.11059789559427    8.44373545910523
H         8.40941967861481   23.59156425128861    8.48555310051164
H         6.90641813458586   23.32882931801987    9.37176051680289
H         6.87188050349259   23.54959295844205    7.62096980198862
C         2.52863371378849   21.87191228559586    9.88915773544624
H         2.33732739832898   22.73246332698720    9.26583214419596
C         3.54103983138878   20.96377156633820    9.50765777073471
C         7.59356026251260   21.56809250882916    5.63930654994218
H         7.14293144232921   20.89403498789460    4.91447720068617
H         8.61463974281167   21.78319567695273    5.31797092017158
H         7.03232267139822   22.49904804297077    5.63917524699976
C         8.33606785776355   18.58178985917632    6.18871491208416
H         9.23022749990045   18.90579921086533    5.65474265215030
H         7.52330829347414   18.49647760167553    5.46839110507370
H         8.52287287773332   17.59769722350232    6.61000092620951
C         8.00571772838068   20.98436645393521   10.72988709970587
H         9.04749639761464   21.23626776378031   10.93886402808316
H         7.73826544853063   20.12325080821561   11.33865478561957
H         7.38711510550759   21.82602382273164   11.03460453731062
C         8.57605459747304   18.20104359031344    9.38696423399563
H         9.62957562043851   18.32383918935909    9.64470972278172
H         8.47580009328964   17.30260119152098    8.78308164062862
H         8.01846952190738   18.05383604983409   10.31050847215692
C         2.63682860512401   18.24740665546686   13.40527737509277
H         1.57505444830044   18.10587004068031   13.18136627572788
H         2.74813485124465   19.02918706528672   14.16361443457821
H         3.05269169347897   17.31477194991751   13.78293313148075
C         1.81004400870554   21.66088480332138   11.03778076789074
H         1.04216041454435   22.36760575235730   11.31732233798452
B         2.53201551816631   16.71456917731064    9.44869530698319
H         2.11687021276972   17.09216461371454   10.47725674144449
B         4.04787334720753   15.79816796965661    9.41009673015365
H         4.62501215662555   15.61615230341100   10.41746966372753
B         2.55947299046307   15.14115742137846    7.05095978582905
H         2.04792184998604   14.32926815580064    6.37194040935806
N         4.32649859391950   21.11813760498231    8.43863617460536
H         4.12836467220567   21.94429518292671    7.89008669874809
B         2.49826812998877   17.81685419049494    8.07497545772503
H         2.15584959730735   18.93695520568956    8.12358497951454
B         4.06491823269907   15.94006984021661    6.55955990673691
H         4.64059822318419   15.83502154342566    5.54236161823043
C         8.09313488504949   19.40895713667020    8.65002733442548
B         4.07709168716050   14.80583656140429    7.93766014256610
H         4.63412108587741   13.77200419974585    7.88808607641614
B         1.59178746764393   16.31128021824566    8.00166932347750
H         0.41638481995471   16.31761015327868    7.99724450415215

