62
CSD_code = PUJMEO | q = 0 | S = 0 | Stoichiometry = C18H29B10ClIrNS2 | MND = 8
Ir       13.75201562615857   10.05253763570542    3.69103373894572
Cl       13.02537085044680    8.13501610423147   -1.25509745724196
S        12.09425817806254    8.95271267014482    5.01460088901935
S        12.71746254630746    9.31198756708291    1.67799019367162
N        14.66650167551435    8.24073921676321    3.51971378566518
H        15.28361263336715    7.86968029286400    4.22997559736537
C        10.90813767031529    8.33704028636200    3.80413282346804
C        11.21620977649641    8.41968526301564    2.23685274892674
C        15.59936740299421   11.37937308667636    4.05255156545249
C        14.90431618699330   11.83267016317356    2.90971659784563
C        13.57506436089118   12.24112142735683    3.32230704112669
C        13.45872060541432   12.02334575204504    4.70896205697496
C        14.68734609131035   11.40574967034856    5.16182110620460
C        15.04053292568406   11.18956787351776    6.59888219511545
H        15.39279748102834   12.12490648859562    7.03775718479678
H        15.82700369600206   10.44663066647141    6.70470846495185
H        14.17198283143481   10.85429061236424    7.16029326178245
C        17.04054375089011   10.99318029156507    4.11096539540026
H        17.35961400070692   10.52389083280850    3.18272805528646
H        17.22762401726360   10.30225536801614    4.92917419482683
H        17.65352523622920   11.88205087681228    4.26985244360675
C        15.48783968180994   12.05817347825467    1.55358097732550
H        16.27623160496196   11.33863893635726    1.34203156006891
H        15.91859396892682   13.05965528707342    1.49494440607789
H        14.72839633969401   11.97264873358245    0.77918809870624
C        12.60504633240867   12.95961517247652    2.44022018856672
H        12.89385666670831   14.00843715553822    2.35192631283034
H        11.59684464696672   12.91752013045678    2.84507478642073
H        12.58842058894486   12.53012338927781    1.44005295158213
C        12.34117824295436   12.43725299839588    5.60999461561977
H        11.49374299549716   12.80825733811717    5.04024814892684
H        12.68186280769379   13.22752500367480    6.27984851345175
H        12.00325174687607   11.59904021065593    6.21809769832564
C        14.71301609674833    7.59210216471309    2.35592946364212
C        13.87061559873320    8.01759047834581    1.30160813520981
C        13.97502036532088    7.47496952696739    0.03185146073905
C        14.84150530096494    6.42832117245196   -0.21649910182284
H        14.91522057063602    6.00501845708270   -1.20366011078774
C        15.61111700858676    5.93649601875781    0.83621214508685
H        16.27481083998104    5.10519696831024    0.65105238805598
C        15.56452687398161    6.49628595098272    2.08767564330936
H        16.18599228769750    6.11741360534448    2.88537974022558
B        10.02753940735357    9.48811050279683    2.86068878750708
H        10.36146947719180   10.60707606683431    2.98311407771317
B         9.23147887000696    8.53807324432546    4.09899437630181
H         8.92625064945716    9.06508314677579    5.10181750262976
B         9.99704799560739    6.93781824616914    4.16399103822080
H        10.18072683118195    6.43697471053652    5.20850447041239
B        11.28557876878212    6.87463945933534    2.96795495732197
H        12.34939534483724    6.42377895416749    3.16505977438292
B        10.57008125639482    7.09600080508465    1.37268573602786
H        11.16270450818933    6.69950957138046    0.44211088011230
B         9.80177796727575    8.69245156193572    1.30590800102294
H         9.92711339172297    9.34104167533444    0.33416474268180
B         8.48117088082790    8.74142369648929    2.49144763902225
H         7.51901590142142    9.39673909881810    2.33234953579426
B         8.45520778146406    7.15076032245757    3.31064935242720
H         7.45933709380684    6.68838386611061    3.72959373304112
B         9.73888717373356    6.12294480993637    2.59991575558700
H         9.64618908915050    4.95495887593214    2.51318650436061
B         8.80965379485804    7.24795216535043    1.56404937504701
H         8.07087570711550    6.85756489749224    0.73773385561014

