69
CSD_code = PUJMAK | q = 1 | S = 0 | Stoichiometry = C35H25ClMnN4O3(1+) | MND = 6
Mn       12.56028958874114    7.59560023636957   10.81182659746885
Cl       12.48120468190194   10.42887465737290    6.78035930633838
N        11.28145310087669    8.93742746841854    9.84685837198503
O        14.49319397524291    5.77067892864226   12.05300906973423
O        10.29685700730767    5.90559562438704   11.61612419000815
O        12.23163745767695    8.90835235924149   13.41795769318461
N        14.01663994597357    8.79840294745818   10.10135302331901
N        12.84221623316785    6.76628637960539    8.99355312798033
N        10.07168557234889    9.85045595122497    8.25378246267250
C        14.63861479285327    9.77769382700347   10.75694429798877
H        14.38778401540197    9.90306311219434   11.80246087949278
C        15.57513224801774   10.61010705444940   10.16802767930904
H        16.04553096910189   11.38580820916560   10.74971365572319
C        15.89453362819427   10.41828442621412    8.83290199774701
H        16.62352286018195   11.04212716772642    8.34029302285943
C        15.26162101598894    9.39957961250061    8.14498754166108
H        15.49920599895770    9.22034348478696    7.10979868444343
C        14.32243125858868    8.60763521197232    8.80292004940079
C        13.61749198236850    7.49060784589896    8.16296229223113
C        12.22427938491444    5.69184593082486    8.50128644996519
H        11.63765601765036    5.10542531990937    9.19694426475880
C        12.30215536913617    5.31446336498993    7.17184904856905
H        11.77835638334349    4.43688182347845    6.83075216574695
C        13.05541627319641    6.08696916605052    6.30097848458366
H        13.12373488878961    5.83764343087901    5.25431487377887
C        13.73136064916793    7.18062861354947    6.80857472833546
H        14.33322715091986    7.79041276363085    6.15621196930816
C        11.05511672189761   10.24542258867144   10.16739818801163
H        11.42753572675027   10.68837994343285   11.07063263913632
C        10.30775738054694   10.81983827147471    9.18436526521369
H         9.94548579470663   11.82129928366560    9.07626286707469
C        10.66918663602275    8.73762475761278    8.69490652146558
H        10.64010460567437    7.80957104443966    8.15936229768476
C         9.38641631324346   10.07154591490305    6.97645533650231
C         7.87307705997383   10.12063829347308    7.18774099438663
C         7.05251667315937   10.03290994438915    6.06484164603642
H         7.49766639325201    9.94357022147122    5.08443384664410
C         5.67724801705775   10.06072741504568    6.19521372315442
H         5.05676684641607    9.99471332180737    5.31501932144614
C         5.09989983399280   10.16938467087580    7.45003003723414
H         4.02642980887383   10.18794940442262    7.55374717635503
C         5.90850026794337   10.25033421363704    8.56840944316617
H         5.46994623279192   10.33084882262963    9.55106212171936
C         7.28864777453635   10.22699958279500    8.44092649028402
H         7.89168463897897   10.28685858433809    9.33477110544487
C         9.93040660606456   11.39313275105226    6.43320233961717
C         9.07987531293406   12.42413722321454    6.04885417684392
H         8.01372094905544   12.28366494015045    6.12583514013236
C         9.56666903628948   13.62913487638089    5.57332342371163
H         8.87466750397103   14.40339950344041    5.28287271910212
C        10.92986374039258   13.83876380006390    5.47669108111804
H        11.31918214253968   14.77434218723280    5.10853386309961
C        11.80078183367425   12.83471662955391    5.85969759612397
H        12.86798331005430   12.97845713471476    5.79313712898881
C        11.30289366693964   11.63211848065373    6.33048018650641
C         9.66125349653596    8.89451314239949    6.03982328589374
C         9.12385969891799    7.65155899542886    6.37282870389549
H         8.50621341847598    7.55380266120652    7.25491936678588
C         9.34912479500580    6.54733252995075    5.57327368490872
H         8.92366483954337    5.59424361893836    5.84830941677374
C        10.09912064599951    6.66985095915717    4.41483652928822
H        10.27048511699610    5.81002888115278    3.78562040722879
C        10.59658415763763    7.90821701032119    4.05399924461377
H        11.15294051442119    8.02340426541818    3.13628690518803
C        10.37536578011490    9.01602221251134    4.85706063536761
H        10.74804563587191    9.97547913390205    4.53396944191558
C        13.74328781277697    6.47911587745076   11.56308089509956
C        11.18129886860708    6.54930634111027   11.28025944711656
C        12.36409193691061    8.43214565253770   12.38567942776037

