95
CSD_code = PUJPUF | q = 0 | S = 0 | Stoichiometry = C36H52Cl2N2O2Ti | MND = 6
Ti       14.04258133469980   18.23301529481292   10.78062364244322
Cl       16.09970437332255   18.87963914999872    9.95147575117597
Cl       12.01004394839273   17.25961749446548   11.29366106408533
O        14.63589216987921   18.12691579008176   12.41475627308896
O        13.34212872330399   19.81785568649588   10.60743746450937
N        14.72083613159292   16.30464731229721   10.52785717510252
N        13.52206624325673   17.91580664565989    8.81378622611866
C        15.63780795904625   17.54116243868178   13.00471125690743
C        16.21431087562375   18.05336266513503   14.19757247060259
C        17.26202303966165   17.36327174443101   14.76812123546176
C        17.78780200064138   16.17163510063974   14.24905881108638
C        17.22053720268680   15.67565322856917   13.09908443612271
C        16.16156888999389   16.33909520324985   12.45946949161035
C        15.61485687893854   15.76208071078925   11.26651778051987
C        14.20055285118796   15.67133934858974    9.33332663154194
C        14.94478463647069   14.42690224253951    8.84148596617231
C        14.32099728116861   13.90589468121456    7.55038619030247
C        14.35144362867672   14.98244551181087    6.47402865458908
C        13.58130775304186   16.21537199984327    6.93630248084540
C        14.18194766446979   16.76524445619445    8.23260982268735
C        12.59977437588739   18.56587685240379    8.20979733707897
C        11.92100979611237   19.71370964483814    8.73704461937647
C        10.84939487568196   20.25205578281500    8.01397997287173
C        10.15847512288935   21.35914934471866    8.45770408878631
C        10.57833845500945   21.94245897573500    9.65724997642213
C        11.63606965364436   21.46884775620352   10.40905524394893
C        12.33171360159754   20.31909994142155    9.95585478557084
C        15.66012881240686   19.33996905455559   14.79434958316866
C        16.40434233272800   19.77779162807284   16.06064147920916
C        15.79117131024273   20.46677238773084   13.75865090099262
C        14.18685637231402   19.11365795271551   15.16612631580230
C        18.94272179524769   15.49622939312739   14.97238542902986
C        18.50781772262881   15.15022758826553   16.40344238286117
C        19.38678164762961   14.20301176364518   14.28368239252913
C        20.14038097770774   16.45559269391844   15.00788689806121
C         8.98891291219759   21.89801286764770    7.64609286635642
C         9.48939813451274   22.29487628975642    6.24999612973066
C         8.33838970537172   23.12760810979757    8.28549476068501
C         7.92099981868297   20.80191038743954    7.52495197077730
C        12.07117503429517   22.13131312745236   11.70960634519612
C        11.94953471418235   21.11027246061753   12.85067257771661
C        13.52494137612361   22.60502191561533   11.55974262605253
C        11.21488170405734   23.34877058333722   12.07515447420740
H        17.70573282193902   17.75661062519157   15.66662377763322
H        17.58170410193054   14.76528241203827   12.64776044108593
H        16.02153929631721   14.77786027818177   11.01737074205328
H        13.15220685740531   15.40828181874279    9.55491994229557
H        14.89472631770589   13.64182544962006    9.59901701148753
H        15.99341651230121   14.68037153855489    8.66312913209364
H        14.86841045826847   13.02420648901112    7.21262078504185
H        13.28771885711705   13.60727366193993    7.73968594648425
H        13.90885690977166   14.60159248022364    5.55195150308159
H        15.38644484463636   15.25794908594649    6.26084858274308
H        13.62890068734927   16.97660768533910    6.15457610417337
H        12.53492313834134   15.94760862505845    7.10685410123403
H        15.22716538812999   17.06886613729332    8.05215920098787
H        12.27395737365319   18.27212964583394    7.20790684707801
H        10.56807517002350   19.76183179086319    7.09341935463835
H        10.05039176214256   22.80747795479688   10.01475693973006
H        17.45461205462593   19.97082231375800   15.85411195069110
H        16.32249034669986   19.03056209479564   16.84693776910808
H        15.96201395402451   20.70025176596563   16.43106723613351
H        16.83917557691236   20.62391923142587   13.50911705572587
H        15.38750235683810   21.39256662471636   14.16337202021592
H        15.25425327630696   20.22532929052308   12.84046028284229
H        13.60455524996921   18.80573757444213   14.29952494038289
H        13.75645518424262   20.02993045304887   15.56445924783748
H        14.10894674769320   18.33683084413195   15.92500813348162
H        18.24806176887390   16.04151026156986   16.96722221389314
H        19.31442604095420   14.64113709203722   16.92661870007018
H        17.64019106078585   14.49426028034577   16.38410772793871
H        19.73432316368574   14.39899806698204   13.27223832523816
H        18.57556761139276   13.47944473461088   14.25072394860187
H        20.20935262968688   13.75964351909322   14.84107667062547
H        20.43131735116353   16.72919753373620   13.99619389854404
H        20.98802678852608   15.97859037781136   15.49529770709221
H        19.90432606260743   17.36586427930902   15.55148569407922
H        10.26548482383957   23.05289423942918    6.33054123557032
H         8.67055501685195   22.70005972798101    5.65934724967911
H         9.90136068337830   21.44142037407475    5.71910910703618
H         7.93935513719002   22.89254143270990    9.26918858593687
H         7.51283245247950   23.46412655495250    7.66154087653090
H         9.04766573353105   23.94738698607528    8.37129537290380
H         8.30679789265643   19.92801735984082    7.00799660841502
H         7.06209709365292   21.17427794244327    6.97060652202253
H         7.58798579546373   20.49217552328955    8.51291963542656
H        12.56166732938610   20.22823797468757   12.65847902155522
H        10.91434125255289   20.79008569683897   12.95602907146701
H        12.27174522817844   21.55932580580136   13.78785535811866
H        13.59456048287879   23.35041694312147   10.76921592106471
H        14.18602131288699   21.77720504456192   11.30956388026471
H        13.86961530081659   23.05396630561430   12.48881882075718
H        11.27919071758551   24.12196386419211   11.31281000906679
H        11.57961976372405   23.77098933392510   13.00926013072689
H        10.17343242324299   23.07054366577990   12.21916267758846

