41
CSD_code = PUJPOZ | q = 0 | S = 0 | Stoichiometry = C16H18CrN2O4 | MND = 6
Cr       13.47655940514092    0.79457351006220    2.00366043177248
O        14.76449710539072   -1.28949195107664    0.29682114547896
O        13.50402226772328   -1.41337571150131    4.05037553403828
O        16.33145954808159    1.56527378788247    2.49504182744643
O        10.98389196413056   -0.14875222440783    0.63449770957741
N        12.49193611608050    2.58779172670885    3.12332040562087
N        12.62888769476527    3.26550537571075    1.88185406356672
C        14.26541636050197   -0.45346933255549    0.92458998034157
C        13.47418980703489   -0.53993314363486    3.29299805911715
C        15.20608859918729    1.31294080093048    2.42613172046831
C        11.87036127511837    0.23084060760593    1.27290800889581
C        13.22856127476193    2.47489402677756    0.99746043261631
C        13.50623364241297    3.04930070837430   -0.35186251970523
C        14.03990281002903    1.99379863676649   -1.31418740430019
C        13.28731116379517    3.22215487869138    4.17165045118888
C        11.10333662416085    2.46654668836005    3.55086690565404
C        12.09533561568755    4.60325943517593    1.71751562132424
C        10.65263404318540    4.64107972106498    1.25573807541326
C         9.88526589563566    5.76625348676943    1.53140793545621
C         8.57150077530587    5.84261992146342    1.10620734227563
C         8.00747633774201    4.79131273812278    0.40324032340800
C         8.76509799962990    3.66696520211863    0.12676691479661
C        10.08170291002281    3.59185772715920    0.54785218729221
H        14.25861446826158    3.84233910449113   -0.23848477698961
H        12.60903007980816    3.51169976698699   -0.78127297319331
H        14.25511114204437    2.43610055462029   -2.28433341847934
H        13.30766591420268    1.20102546941114   -1.44599606980181
H        14.95013859350830    1.55062781815314   -0.91826881606566
H        14.28060296817552    3.45135455227849    3.78579958917229
H        13.39291731381511    2.52213141999232    4.99919411620141
H        12.82587991129102    4.14298913086627    4.55316224326763
H        10.51039200942285    2.01710162800149    2.75606491015924
H        10.66119409507815    3.43488947652559    3.82023729665728
H        11.06742440425858    1.81093283367060    4.41988968519230
H        12.71775445828111    5.13163990827053    0.98644774211177
H        12.18517797811460    5.14697880011389    2.66352335358420
H        10.32174177366857    6.58924365149345    2.08047546365553
H         7.98734942482468    6.72352123154361    1.32658475491181
H         6.98140343612955    4.84879875906853    0.07338844167026
H         8.33448963918694    2.84139220489758   -0.41917717083265
H        10.65644315440598    2.70428707304799    0.32461047703559

