85
CSD_code = PUJRET | q = 0 | S = 0 | Stoichiometry = C34H44N2O4Pt | MND = 5
Pt       -0.32719154341199    1.95774115893969    3.36616809854712
O        -1.31219307608640   -1.18549700846963    2.90179033054466
O        -2.32585012935380   -1.11940337377148    4.90660263938373
O         3.15196295310217    0.46706409565526    4.56110418280148
O         1.64415419519651    1.68513521347514    5.72139704394785
N        -2.61604027219990    3.08035222008824    4.95938088402936
N        -3.12767131022113    3.31685486463910    2.87753310595842
C        -2.19728719984057    2.85030650771972    3.71179618354633
C        -3.88392487448784    3.80898221358604    5.02351383316631
H        -3.71284458660312    4.80874636384035    5.44007337645933
H        -4.59983671843320    3.29211329078722    5.66385198171368
C        -4.30975551408089    3.84621277804848    3.56047671530706
H        -5.17233215155717    3.20162554315509    3.35574077260757
H        -4.54528440998699    4.85076898798644    3.20529444565972
C        -1.90510509620857    2.85998086095933    6.16811312926478
C        -0.78497904943099    3.63912883282687    6.46694151620579
C        -0.24055102959965    4.60925576100319    5.46644617765203
H         0.20669963169813    4.04229219875622    4.64078807178134
H         0.52411378189418    5.23832412781814    5.91384877771255
H        -1.02436980130260    5.24502216752305    5.05661202612253
C        -0.17013461828986    3.47942721012907    7.69871152695168
H         0.68567827983297    4.09297703490950    7.94005767828716
C        -0.62663482077343    2.55424711692459    8.62396085749461
C         0.06281333535769    2.37089492527908    9.94184794558245
H        -0.66173519712913    2.32815265932612   10.75302277150527
H         0.75952643722076    3.18288753407264   10.13496581624988
H         0.61872272735281    1.43310181446053    9.94452150952608
C        -1.73005623506033    1.77942668813966    8.29779777462162
H        -2.08943164912637    1.04413761592162    9.00383247365505
C        -2.38652109597846    1.92285603459847    7.08517299533406
C        -3.57740191731512    1.06450854969231    6.78160421573306
H        -3.45054761594547    0.08342119743515    7.23177835835567
H        -3.69743566693775    0.93146911338025    5.71016339326868
H        -4.48681671822511    1.50672554861960    7.19260270061253
C        -3.13193196591157    3.28935078166801    1.46033656618771
C        -3.36964810165487    2.08879774138063    0.78792703228324
C        -3.51264282214630    0.80809435963244    1.54327070489378
H        -2.53187123870132    0.47683456243770    1.88849222470527
H        -3.92537596352692    0.02879968124233    0.90825230896670
H        -4.15168121380178    0.93104640341232    2.41655871844816
C        -3.44924547645314    2.10653789505868   -0.59595423179279
H        -3.62626645749413    1.18020741795785   -1.12264823659185
C        -3.31005915438933    3.28371040742676   -1.31791030616719
C        -3.38348978017557    3.27468759677303   -2.81394639149179
H        -3.71606841981675    4.23781095158519   -3.19366709387636
H        -4.06248235813963    2.50089952962541   -3.16411513470487
H        -2.39688193827239    3.06944577687958   -3.23041308801480
C        -3.06601178389892    4.46146287027792   -0.62720531318590
H        -2.93835692904165    5.38373980637737   -1.17592388968954
C        -2.96819354554873    4.48363428898811    0.75686117102956
C        -2.66775735100713    5.77479943041085    1.45900273293400
H        -1.99461950201275    6.37798283123266    0.85411187881416
H        -2.19955207442565    5.59274004612167    2.42324768021383
H        -3.57973751566881    6.35331743492455    1.61433180428140
C         0.84705627327876    0.34555758969708    3.98499191261909
H         1.08604792357761   -0.38717530573990    3.21565020887861
C        -0.45618284251238    0.26066036156782    4.59689261953536
H        -0.56353297796483    0.43272069450052    5.66483563073620
C        -1.36438089245349   -0.72760401664789    4.02703126937965
C        -3.24726048813119   -2.07604530836947    4.41693376268246
H        -3.75231019141326   -1.69978191385063    3.52382762964355
H        -3.96329610464113   -2.25004338484902    5.21696681798194
H        -2.73284591337381   -3.00427600820386    4.15788804292837
C         2.00188799822984    0.79993311355606    4.74905666969332
C         2.68074185773330    2.19590971038278    6.53628876035989
H         3.62231586212490    1.70123262434367    6.28477466049936
H         2.42343385202747    2.00789217320240    7.57902292620017
H         2.77268453539312    3.26988127851275    6.36468607960620
C         1.40898462059163    2.66154964557081    2.34377839790687
H         2.14632807663723    3.09107770140935    3.01961868299216
C         0.27618084949593    3.36807861807236    1.87006515912671
H         0.11004883846069    4.42388485586202    2.08253915452240
C         0.09890795045373    2.89716785035376    0.43415002530810
H        -0.86968976482911    3.07979818466179   -0.02031922444967
C         1.27366076422602    3.52309645365508   -0.34995618419477
H         1.13813046962272    3.36589571609390   -1.42014299665782
H         1.34713977380646    4.59580930408131   -0.17217193491167
C         2.49770221360636    2.75276082257850    0.17860149530479
H         3.23678032296352    3.40720870245426    0.63950630146968
H         2.98931670482121    2.19331585273665   -0.61705688444378
C         1.87832611775063    1.78234659387489    1.20923043480067
H         2.53191429477325    0.95781659252095    1.48608270396073
C         0.55253130243017    1.43888842405523    0.52692446434806
H         0.68101949540810    0.97028182267336   -0.44759254651779
H        -0.10520637409129    0.82392159036386    1.15007351387038

