53
CSD_code = PUJSOC | q = 1 | S = 0 | Stoichiometry = C15H33BrNiP3(1+) | MND = 4
Br        5.73427450983103    1.56539642292561    2.20156453349354
Ni        3.73000225766574    0.71244421374170    2.62491364073684
P         3.90937137990585    1.28273872854004    4.72101877710143
P         4.30750523082274   -1.20386677271411    1.76477609825513
P         1.63346618460909    0.31174479243904    2.69539292741458
C         5.02863217184301   -0.11459045125313    5.21123066890710
C         4.62781850156539   -1.48526355372782    4.63947391362171
C         5.21690585443372   -1.83505953693451    3.26193611504478
C         3.06789430834906   -2.52654419550044    1.40332086823208
C         1.75306370805113   -2.44303374032171    2.17648971033528
C         0.96470869739629   -1.17434018302974    1.84595734048091
C         0.63336390499050    0.38478596848003    4.23592135986815
C         1.13855542510517    1.42799321671622    5.23100807945172
C         2.47291023475214    1.02779675451657    5.86101147410070
C         4.71579850467778    2.80420119697223    5.36315228746223
C         5.35159049215694    2.66431449485738    6.74158753968924
C         5.51834459102915   -1.42303068522179    0.40069512401284
C         6.03247111815132   -2.84356641844686    0.19585108076059
C         0.99930753390018    1.71174854847584    1.68483159902455
C         2.00873000117627    2.02897225040769    0.58133865331134
H         6.04519335979002    0.14410098088969    4.90179852682380
H         5.00376658418764   -0.15749089205060    6.30406987641857
H         4.98303187290596   -2.24560998900307    5.33949641723654
H         3.53507658384307   -1.56539325194649    4.60800093408824
H         5.25862878325699   -2.92363498622690    3.16339469297912
H         6.23848158528514   -1.44811305090345    3.18941000474397
H         2.85659921770823   -2.47189234642688    0.33061294042310
H         3.54678556604060   -3.48846707096637    1.60490885565340
H         1.94376243299002   -2.49549504951652    3.25236821283840
H         1.14801213006068   -3.31446066366202    1.91487895688933
H        -0.08060583580121   -1.28299056356703    2.14974324159356
H         0.99028389888936   -0.99540982803067    0.76713808653295
H        -0.39122582281004    0.61977966054875    3.92922070282410
H         0.62830461110364   -0.60545826341035    4.70153738906303
H         1.24773227612590    2.39733825000407    4.73338152169571
H         0.39179823738335    1.54884831548955    6.01876874976199
H         2.43717614152399   -0.01897179011602    6.17282586582743
H         2.65167364970985    1.63662697862285    6.74994215129317
H         5.47043274420902    3.11279298120575    4.63536460247304
H         3.93538018656063    3.57270287684511    5.37716158067635
H         4.65175522106124    2.28216991774756    7.48211314015056
H         5.68670591711135    3.64350452057635    7.07497004050767
H         6.21825431468539    2.01014486088476    6.70919302522831
H         5.02911066081895   -1.06402123500250   -0.51071504533792
H         6.35300464581722   -0.74680933454624    0.60493096758636
H         6.76846301632207   -2.83542602982828   -0.60458798235690
H         5.23789843290142   -3.52680404455990   -0.09215516079263
H         6.51939651818413   -3.22414397017940    1.08972280203213
H         0.01982149003987    1.45044321800188    1.27321970193140
H         0.87979917449144    2.57908381310415    2.34067689451180
H         1.71344430551985    2.91462773772720    0.02400011859608
H         2.09862250746752    1.20032622796793   -0.12122302383555
H         3.00112098220364    2.23006096940420    1.01965942063807

