52
CSD_code = PUJTOD | q = 0 | S = 0 | Stoichiometry = C23H19N4O5V | MND = 6
V         7.78059893618488    4.84451248022119   30.71727111933363
O         8.72686668802741    5.75880975344461   31.48357446989658
N         8.96364304043698    4.82016108112495   28.99519135201525
C         8.32879039664909    4.75046975064220   27.81530918583174
C        10.18229222901098    5.31794931517813   29.03914184461535
C        10.84967454153821    5.79011713105192   27.90438740332951
C        10.20478035337096    5.76692486491423   26.69112429872403
C         8.90535697333682    5.24070837777351   26.61870336556718
C         8.15263346258146    5.21402305155431   25.40964049369762
C         6.88355154639771    4.74264616290656   25.39034406087446
C         6.27821827138185    4.21804421244423   26.56759812760254
C         4.96092131505104    3.72950522461664   26.59302488145955
C         4.46224039518384    3.22324786446587   27.76613881793833
C         5.29068265365656    3.18592954119867   28.89510546843354
N         6.52097938651082    3.64489945278130   28.90413869540621
C         7.00995757004225    4.18212407369372   27.77596848188979
N         8.25101863961613    3.27640379272777   31.39333441231691
C         7.23220124573467    2.36756332876357   31.76529914415929
C         5.96411208477025    3.23697963963502   31.99626664733730
O         4.89598349569684    2.75218284843962   32.32818414918982
N         6.25608838372138    4.49557670802474   31.69700987587647
C         5.24391431270226    5.50295207145676   31.69478873633362
C         5.40460872937736    6.10826657275722   30.27163363845582
O         6.62636705300610    6.07246504803418   29.91385606923599
O         4.46283994964683    6.51803807447348   29.62756044369018
C         5.57376293883981    6.59315351241529   32.73529813309431
C         5.71522036049881    5.94322698735426   34.08142419463647
C         6.92393196574511    5.35350451296250   34.43370247729685
C         7.05233344115921    4.68307223288024   35.63640713190256
O         6.06029594246575    3.94541790250261   37.70388426441095
C         5.97243841175640    4.59343115865278   36.50683708908032
C         4.76184366951626    5.18219459509712   36.16034999577428
C         4.63949734950012    5.84404703023819   34.95457592140160
H        10.64783674724941    5.35686610237017   30.01772623998798
H        11.84859326213063    6.18612268319686   27.99751320589826
H        10.67396496747883    6.15301743090539   25.79768923874542
H         8.61595304360751    5.60075431968753   24.51405802832977
H         6.30170323358093    4.75116458507155   24.48043428014635
H         4.36109070144070    3.76587825432623   25.69514973460315
H         3.45165140325232    2.85421626247954   27.83550356213679
H         4.91732910492539    2.76350376727525   29.81882436263026
H         9.10619156195732    3.12821257646959   31.92718932075720
H         7.45965726674934    1.77997054071052   32.66478845468433
H         6.97150971941223    1.67176180022376   30.95495961568091
H         4.23854451134121    5.09236176913111   31.85493614325588
H         6.52576302637230    7.05293438638716   32.43973153761599
H         4.78157243443999    7.34326824246035   32.73185816863828
H         7.77004751287618    5.42564604579573   33.75679444298859
H         7.99667455835200    4.22611480887456   35.90567489826331
H         6.94791107035197    3.58258646753959   37.80829085984877
H         3.93143894476927    5.10347777138735   36.84374546898322
H         3.69222119659835    6.29019383128032   34.68885804599632

