28
CSD_code = PUJVUL | q = 0 | S = 0 | Stoichiometry = C11H11BrNO3Re | MND = 9
Re        0.97253492601528    2.42322020361696    2.35680825352554
Br        1.19014921065228    4.49533556059009    3.84232473819799
N         0.40350804006801   -0.67308929095966    2.85336527293149
O        -0.97250833585887    0.30751417373162    1.34743258435172
O        -1.11503845198885    1.63554488359639    4.50117918781729
O        -1.18589693478522    3.69848037939156    0.58017903545161
C         1.50519871317460   -0.59196523182360    3.78921038218351
C         2.85410489108873   -0.43681351697435    3.05653610697207
C         2.88395866821601    0.84373730777455    2.28579360465056
C         3.41880968735423    2.06397064995073    2.70418508335903
C         3.23930390622420    3.02145071629785    1.65665920778305
C         2.57977122794994    2.39345144917404    0.59100871388326
C         2.29780065330876    1.05335373262229    0.98618564168454
C        -0.10909293193379    0.35438119171426    2.17673286547004
C        -0.05389984815777   -2.01461245986516    2.52388586097337
C        -0.34060844240783    1.92293033445335    3.69891409151348
C        -0.42398660499372    3.20780544140674    1.27311204519598
H         1.36068797160662    0.25759139541982    4.46634798649554
H         1.50385452792463   -1.50605569780095    4.38535310103585
H         2.99547083341721   -1.28507753292005    2.38118569480707
H         3.65476780523319   -0.44597395795772    3.79878330216041
H         3.95930873118099    2.24201598481549    3.62049638531930
H         3.64300764025650    4.02197921790380    1.65571446946933
H         2.40448344635807    2.80929570125086   -0.38915661580734
H         1.95523446022417    0.27236497457535    0.32307002171262
H        -0.83756485095637   -1.94195105691832    1.77316082158159
H         0.76954729606310   -2.61416417480840    2.13167656813683
H        -0.45540623523527   -2.49362037825363    3.41755558914391

