37
CSD_code = PUJWAS | q = 0 | S = 0 | Stoichiometry = C16H16NO2ReSe | MND = 9
Re        7.50457018420645    4.00345451911971    3.50486224819137
Se        9.55459259128682    5.01565373629256    4.15096097484242
N         5.58644235138809    5.49552968052178    1.59787893660673
O         7.17153082610891    6.70943018630097    2.63735165133189
O         8.62523570616887    2.77151290344409    0.93354371171196
C         4.90229147305253    4.23814787006223    1.38516773977961
C         4.13943729986498    3.79774645682836    2.65559438752038
C         5.10860570905666    3.56117025796609    3.77165312166463
C         5.50907331306283    4.50021020772617    4.76966536845093
C         6.44841627457913    3.88724163779446    5.60843416536913
C         6.65819797284132    2.56260156425552    5.14548483764934
C         5.81703039184845    2.35795372407937    4.01473721039444
C         6.68166665827799    5.62865937022576    2.36861941764948
C         4.93587749937131    6.68224043123978    1.07536814598316
C         8.23725369244063    3.26231301860834    1.90309332030321
C         9.01515513654348    5.81980777975570    5.82922204486961
C         9.50355028374249    5.33197957040625    7.03540508916700
C         9.08669797026906    5.90498923150481    8.22426343371018
C         8.19767380056195    6.96795811493850    8.21182322743641
C         7.73089982389164    7.46691260330259    7.00585669424483
C         8.13932620175494    6.89894708869784    5.81278341078953
H         4.20682701415633    4.36622997361656    0.55419224759162
H         5.63452650700715    3.46615816545311    1.12103157666345
H         3.58824475744172    2.88178781992179    2.43239213168711
H         3.42515326938836    4.57684533697226    2.93489180886329
H         5.09259089791885    5.48753533858795    4.90308199959638
H         6.84910487181800    4.30466848860676    6.51883466988147
H         7.21706760675298    1.79473930434526    5.66051595827143
H         5.65793319943755    1.41882444988961    3.50644292072558
H         4.86924250202432    6.62269056512307   -0.01203516167521
H         5.53594089494948    7.54727419741228    1.35099193223552
H         3.93150788574314    6.79017156755440    1.49189066374522
H        10.19272254494041    4.49876745435502    7.03495472023416
H         9.45527206441266    5.51867635021336    9.16352290439303
H         7.87064051843580    7.40881967215079    9.14208797054191
H         7.04346998229726    8.30053224008194    6.99491492085579
H         7.78083032295944    7.27801912264225    4.86571959871722

