47
CSD_code = PUJWOG | q = 1 | S = 0 | Stoichiometry = C15H28N3Ru(1+) | MND = 8
Ru       12.73333817356423    3.70246663744474    0.85368417775176
N        11.42536749330957    3.70245144891753   -0.89481346251063
N        13.87425256668440    5.10291423161466   -0.45054115730672
C        11.70921060386198    4.93002854769313   -1.65791144894841
C        13.20040907507386    5.25510519481770   -1.76015791743000
C        15.20082705201300    4.47867038399477   -0.60011185382503
C         9.98910598946953    3.70246706611719   -0.58927715596253
C        14.04095389638405    6.44011450194292    0.13015849929260
C        13.52538769652980    3.70237316932018    2.93794032673920
C        12.83048658119371    2.48720953383520    2.69897606740542
C        11.49816319487515    2.52566583218996    2.26042887857962
C        10.66265337378696    3.70256952287633    2.71872984209767
H        11.21618914846192    5.75239181828374   -1.13151790834365
H        11.28026386295196    4.86591176131146   -2.66829388883724
H        13.68297735279774    4.62663399417955   -2.50733820732124
H        13.29825154336373    6.28725980463211   -2.11708045227363
H        15.80603205101376    4.80416100420248    0.24786536396123
H        15.69258219072254    4.85442494083220   -1.50735857139231
H         9.39746920981710    3.70245595140062   -1.51203973338895
H         9.73124167352121    4.58583817200565   -0.01066195233734
H        13.06282402593335    6.89260968280171    0.28841574533700
H        14.55654856755029    6.37694463028734    1.08521950555895
H        14.62805984591840    7.08664863037021   -0.53275470113606
H        14.52027236126565    3.70229736620355    3.36944319868585
H        13.34843402806239    1.54200800327978    2.83399122524386
H        10.98513259205783    1.57819301517240    2.10608903320820
H         9.67663068548790    3.70264389102748    2.25480435557692
H        10.51374090970812    3.70256420001224    3.80865328819424
N        13.87430386664010    2.30204121936140   -0.45055580621261
C        13.20039637819232    2.14976889093501   -1.76013155897224
C        11.70919808228686    2.47482878984270   -1.65784100091378
H         9.73122740488884    2.81911866915335   -0.01063351561282
H        11.21620813976634    1.65249289152428   -1.13137531557260
H        11.28021245136448    2.53887481567133   -2.66821163702847
H        13.68291306879567    2.77820523323835   -2.50737468062515
H        13.29823812251549    1.11759626055237   -2.11700179357206
C        15.20084708222471    2.92633799731310   -0.60021825800242
H        15.80617819983986    2.60076070742371    0.24763422367923
H        15.69249453771543    2.55070931673662   -1.50757378751567
C        14.04108398940923    0.96487106671897    0.13019080273100
H        13.06297912389490    0.51233760575572    0.28849315228588
H        14.55670140718733    1.02810461961633    1.08523515219283
H        14.62819943210759    0.31833709615965   -0.53271458102355
C        12.83064947044856    4.91763611612808    2.69902771984331
C        11.49832197006446    4.87937273893038    2.26046381888979
H        10.98541887794987    5.82691994808296    2.10615891004973
H        13.34872264932755    5.86276308008885    2.83408705876051

