51
CSD_code = PUJYIE | q = 0 | S = 0 | Stoichiometry = C22H25ClN2Ru | MND = 9
Ru        4.42328514422968    1.09816006334091    4.17270750608104
Cl        2.96399623884699    2.69812967435143    5.08276916577526
N         3.04695997996468    0.86010705387747    2.72120839625782
N         4.86719075801159    2.63138428443058    2.89722575510717
C         2.02370676621553    0.04875867685409    2.48299859029541
H         1.77295506264687   -0.76584374302630    3.13952516281886
C         1.37482218975398    0.42892618500133    1.30233112802642
H         0.52433195622288   -0.06130034786098    0.86944263905822
C         2.04073558393009    1.53752086191167    0.80982501134104
H         1.81497858667872    2.09881864322717   -0.07560531351323
C         3.07825762616683    1.80268756525146    1.71720708082959
C         4.07021333667457    2.78056046409097    1.88033744802439
H         4.15278384478624    3.63779105716195    1.21631271999822
C         5.83572444113853    3.64602679495055    3.22288572085081
H         5.67793370351575    3.93960816794882    4.26866388245517
H         5.67543743217961    4.53449668836741    2.59375203537707
C         7.25074183511099    3.15558110568301    3.03102809680324
C         8.23395516847880    3.42346356236395    3.97405406120332
H         7.98513124912946    3.99808139626368    4.85533414273444
C         9.52751303890135    2.96611355429635    3.78927977231555
H        10.28431586600187    3.17878191178328    4.53026695650281
C         9.85122311284950    2.23514361602573    2.65889052833862
H        10.85909700824190    1.87399025873520    2.51725354656662
C         8.87849383689683    1.97397088744308    1.70797215328722
H         9.12823927704292    1.41136614097763    0.81981098574036
C         7.58649514103487    2.43462521842359    1.89104286976638
H         6.82656250538747    2.22925942488476    1.15046068908006
C         5.90256797674061   -0.97225915417274    1.44662415332386
H         5.09223893442524   -0.25224039807938    1.33464337452502
H         5.89627070575504   -1.63934051763572    0.58785117340434
H         6.84803519447582   -0.43554204288893    1.45706144472627
C         6.90347747509903   -2.70859957499604    2.97952648487535
H         7.82417301360093   -2.13850645024262    3.08421244347171
H         7.01644357217208   -3.39456797765089    2.14358402166170
H         6.75410993483252   -3.29110897561656    3.88652107267713
C         5.71426583753406   -1.77389741120784    2.73565820632091
H         4.81107807883317   -2.38502561540394    2.62482420262257
C         5.52182433443714   -0.86548824197538    3.92703705771451
C         6.45264423929010    0.14593968584049    4.24452752375467
H         7.33842634391656    0.27461869153580    3.63328814924560
C         6.33774924186918    0.90435961952488    5.44088004374950
H         7.12916735854197    1.59604512871923    5.70591550638530
C         5.24499676176718    0.72671913567047    6.29574470587868
C         4.27456529316635   -0.26786731332075    5.96222995490187
H         3.45706614006448   -0.45754886100912    6.64970220708911
C         4.42753538316520   -1.05743413102067    4.81639949451119
H         3.73095023627458   -1.86861051954223    4.62802015663195
C         5.08006026764193    1.53298915072375    7.54624329634039
H         4.83637962387385    0.88963567443726    8.39059764106862
H         4.25512115209056    2.23663384385183    7.40717406917660
H         5.98237221039449    2.09688708770228    7.77265288482308

