34
CSD_code = PUJYOI | q = 1 | S = 0 | Stoichiometry = C16H14FeNO2(1+) | MND = 8
Fe        2.00726220303279   12.68256334155987    0.61709960649399
N         3.02888640300697   11.37411470466392   -1.81117547927814
O         4.27656513821515   11.87192936403226    2.21464705256334
O         0.63744966109924   10.14905952860721    0.87577310403425
C         3.39169386465785   12.15567343601133    1.56123683238385
C         1.24522693095351   11.09560394799485    0.71233823177018
C         2.84920521949712   12.44542517457991   -1.10302166772506
C         3.24388441536165   13.72941830149867   -1.78785571435337
C         2.12682749694685   14.78052033659909   -1.63640109447968
C         1.53501888375973   14.58069264277887   -0.27583696867036
C         2.20131776891444   14.81127014876200    0.95262463452394
C         1.37819824953217   14.30784699178245    2.00045564118405
C         0.22831945263517   13.74280163123232    1.42009724910426
C         0.33181038666364   13.88050626370025    0.00730244542404
C         2.80140111625664   10.03192089747507   -1.40037656801873
C         3.47001287492328    9.50839684324580   -0.30089690979929
C         3.23864217672671    8.19638394034818    0.07488924705890
C         2.34453851971608    7.41517430931583   -0.63878621357041
C         1.69519960652622    7.93622449097442   -1.74682880093183
C         1.92867051334614    9.24192601668480   -2.13909240400418
H         3.34287498923918   11.45750309099937   -2.78176989837398
H         4.13855344251434   14.09143180310739   -1.27320182687320
H         3.50626672784222   13.57715186552663   -2.84019783815484
H         1.36348501266559   14.62456179613610   -2.39968554014419
H         2.53195448752863   15.78598605450709   -1.75251950487690
H         3.08624371834193   15.41074993621508    1.08784600191315
H         1.55718403335405   14.43318174771447    3.05485146335973
H        -0.62262145209795   13.35393996031780    1.95330916290081
H        -0.45141928126306   13.66602881641053   -0.70055880345930
H         4.18654849312742   10.11775913179343    0.22624649285183
H         3.76201665554786    7.78486325876176    0.92315938883604
H         2.16158256293262    6.39575887877236   -0.33866799081325
H         1.00801966702677    7.32478822051769   -2.30984186290477
H         1.42608006146879    9.65264312737344   -3.00166146797115

