55
CSD_code = PUJYIC | q = 1 | S = 0 | Stoichiometry = C27H24FeO2P(1+) | MND = 8
Fe        7.09366763140786   15.03257476259444    1.73506507987036
P         8.52284844909969   14.33147845898149    0.21183790034840
C         6.17921800404055   15.06614951416345    3.73347150179386
C         7.22675118668640   16.02656852309601    3.67590515139994
C         8.43910855273570   15.35818809659842    3.39354187581167
C         8.15833203831528   13.96392774289435    3.31246918088699
C         6.77443220366292   13.78730694264130    3.51073801080983
C         6.91271743416296   16.56694143741496    0.90756901479888
C         5.66247569813756   14.42982207472417    0.91657074040178
C         4.77774626519869   15.31582792493562    4.18724062689158
C         4.70958752661685   15.21075261787501    5.71529805825105
O         6.76704062676575   17.57567489500244    0.40474051712706
O         4.67556626770839   14.06030512333579    0.48784145911913
C        10.23031524541640   14.64374804575511    0.73991850462762
C        11.10966283329530   13.62661672278715    1.09309809741345
C        12.38427732404584   13.94580333419018    1.53142591250162
C        12.77832349979362   15.27019269490554    1.62779720002706
C        11.89648503890579   16.28774277072765    1.29025587327367
C        10.62277150928757   15.97805594342713    0.85538187892288
C         8.43071543335361   15.10491757609589   -1.43234159089659
C         9.56824369598614   15.44228325302569   -2.16152656273143
C         9.43780237121156   15.97701393934409   -3.43137519271083
C         8.18218118200052   16.17308889033692   -3.98189968891197
C         7.04726746674597   15.83129785639514   -3.26230065451445
C         7.16995331117205   15.29907025035984   -1.99290174210286
C         8.44563582849728   12.56278585687476   -0.19822737147666
C         9.28420768719733   12.06007519888214   -1.19258705381783
C         9.22740074830328   10.71960128350344   -1.52388056002939
C         8.33479128161023    9.87878495011292   -0.87561980333274
C         7.49503700827258   10.37851881234971    0.10634197447348
C         7.54822957763730   11.71903246331312    0.44581476102839
H         7.12120338385559   17.07635444633523    3.89562765676046
H         9.42227119410021   15.79748183107102    3.41523319541228
H         8.89288918852872   13.17882675966958    3.22859134326895
H         6.26548339286148   12.84283122929851    3.61459797459543
H         4.10170979666041   14.58284607984905    3.74390438814346
H         4.45645664959106   16.31144612392131    3.87723139679637
H         3.69314163482549   15.39070070354729    6.05248147928835
H         5.36355795285066   15.94514530548986    6.17872034039477
H         5.01360671464215   14.22042729992419    6.04520891822749
H        10.80335674170580   12.59259333119103    1.01619937577380
H        13.07054816674846   13.15690968152763    1.79844839687528
H        13.77280317559284   15.51241068835436    1.96869231108753
H        12.20419001361758   17.31920003871512    1.36905182379972
H         9.92044315757135   16.75994486648407    0.59359244550335
H        10.55189556965190   15.29631547447358   -1.73793164495575
H        10.32170546185373   16.24100288247974   -3.99154043721714
H         8.08663798553042   16.59245359571390   -4.97120871511425
H         6.06834335397238   15.98133042339685   -3.69045731011113
H         6.28903424537648   15.03047415662782   -1.42437562030131
H         9.97311032792529   12.72114852735673   -1.70011889942388
H         9.87745678388612   10.32947770162696   -2.29181632400523
H         8.29138425431320    8.83377845233001   -1.14011685145546
H         6.79677730768599    9.72420423461153    0.60537241979396
H         6.89150061938160   12.11984820936223    1.20604923760794

