73
CSD_code = PUKCAB | q = 1 | S = 0 | Stoichiometry = C35H27Cl2N4O3RuS(1+) | MND = 6
Ru        2.38974290247960    3.04005910633654    1.33518153783995
S         1.64960783142372    4.59757001322218    2.85616889876264
Cl       -1.26044026130375    9.48756814495456    6.56577896796691
Cl        7.66663383684257    7.77345687067597    1.90973197502481
N         3.34185536493533    4.40945913635652    0.24591579503641
O         0.53354704357776    3.53970924898271    0.47011355979393
N         1.44324833653274    1.53358953420813    2.26513201627464
N         2.52206507583320    1.62270467937195   -0.08567566645067
O         1.93061191159211    4.37030731141687    4.26725766876621
N         4.24086657410177    2.81602859170835    2.06037700424411
C        -0.35665932094728    8.61460444431311    5.38729115153468
C         1.00962337477625    0.58005032172233    1.41131289302010
C         3.71357162026424    7.70722419048681    1.44140663307918
H         2.97779508383014    8.20291191561223    0.82591604890588
C         3.30504018804382    6.74542764186713    2.36059278128345
C         1.10035068133948    7.20566043057250    3.49214792228966
C         4.26078888315218    6.13952463839386    3.16961145834967
H         3.96443658715444    5.40611367503602    3.90391570363787
C         1.59351471956160    7.36174137704574    4.78288861198767
H         2.54493719670336    6.93390268283594    5.05359278454184
C        -0.27133796642988    4.36122852177585    1.02210595063500
C         1.58621094555677    0.66032421942686    0.06775845274549
O        -1.07485523591483    5.05613608355883    0.44169064225306
C         5.59900479688617    6.46959196000779    3.04830139849954
H         6.33443418781668    6.00400666726067    3.68484152676435
C         1.93386066533985   -0.10341706152729   -2.18062254829135
H         1.68990451739577   -0.75879725393885   -3.00128619715926
C        -0.13261334870878    4.46416965797041    2.57087909445857
H        -0.47519738179663    3.54391021986080    3.04440670921354
H        -0.66428705916926    5.31836637189584    2.98392602748182
C        -0.85866732532763    8.47176644498710    4.10140474548642
H        -1.80991781851453    8.90682481427669    3.84017094340882
C         5.99087783134497    7.40661702453522    2.10578946931384
C         0.86935078144504    8.06142048397744    5.72924802707364
H         1.25183747883448    8.17891449535163    6.73031412067301
C        -0.27148941201373   -0.46850851984446    3.14892995276743
H        -0.95231583066942   -1.23320158470435    3.48683319104259
C         1.84844229435000    6.40900850896822    2.47083223020795
H         1.36468428289862    6.50097383601512    1.49380897466753
C        -0.13187096660088    7.76561209795231    3.16172633343486
H        -0.52648432054605    7.65628275149970    2.16118020100096
C         0.13985949871822   -0.42600817170243    1.82896599027081
H        -0.21204957074599   -1.16700196027901    1.13120914854235
C         5.17755675176518    3.61729657843657    1.50044421522329
C         4.67716156028027    4.48527593471366    0.43509408744675
C         5.04804488807424    8.03952256778272    1.30881112180023
H         5.35735078016931    8.78538355348578    0.59433822603153
C         1.26749423398692   -0.20938747723034   -0.97401159540034
H         0.49741273968212   -0.95168572554292   -0.84741857140619
C         6.50016692301036    3.60384765357687    1.93964340215698
H         7.22900291536301    4.25135554443169    1.48189146147622
C         4.60386388783284    2.01295078602775    3.05969156289495
H         3.82604181495681    1.39056980692364    3.48278319838563
C         6.86638314543678    2.76567451389818    2.97609652789320
H         7.88405780832721    2.74499765631912    3.33175605316676
C         5.89450111722453    1.95647356390546    3.55051638458861
H         6.13311031398229    1.29137849451208    4.36407376488543
C         3.18097723353231    1.69849209978297   -1.24044342143875
H         3.94959759932291    2.45848371366447   -1.31659190513559
C         1.07068939014532    1.46537307685620    3.54316772762405
H         1.46138781513096    2.23095037211426    4.20362872164357
C         2.92703525501879    0.85790841676687   -2.30841093230440
H         3.48700166586370    0.96343814160134   -3.22303323339678
C         2.77927415748284    5.13868226508579   -0.71372846786708
H         1.71032055000666    5.01418340923088   -0.84329728665343
C         3.50627652551162    5.98961276365693   -1.52648724327947
H         3.00641177917310    6.55895293354344   -2.29274154386758
C         0.22216748846523    0.48564442660508    4.02793356914239
H        -0.05143485637551    0.48062972886138    5.07028350713381
C         4.87894690274423    6.08208389680932   -1.34066484304314
H         5.47766550298960    6.72943286463034   -1.96099535068312
C         5.47089906387412    5.31939136476418   -0.34970161498217
H         6.53551637288422    5.36495351233661   -0.19539965247525

