112
CSD_code = PUKMAL | q = 1 | S = 0 | Stoichiometry = C52H51N4O2P2Pd(1+) | MND = 5
Pd        2.76910253387992    6.12177685478565   27.97066240100767
P         3.83860892477743    7.72778387457456   29.17325995663575
P         3.55161396940187    6.80079545330797   25.94367449698142
N         4.70583216097663    7.14055939632944   30.50524170993263
N         2.80582270719874    8.92362017417186   29.66707783325617
N         2.38623172889836    6.89663590144815   24.71520420173679
N         4.82085088794042    5.85226649997533   25.44788196321528
O         5.10351255902449    8.50614910573039   28.56243244150176
O         4.06977845953149    8.30001049745603   25.72109552187944
C         3.93049073670041    6.90911325880011   31.66623216811776
C         3.75988381856588    5.61698201037233   32.20290027720394
H         4.25355304946307    4.77517407926485   31.74241079420444
C         2.99086637173710    5.41624368891297   33.31364859414965
H         2.88168818973113    4.42418491237259   33.72680914148149
C         2.31065032764931    6.48728404574984   33.92492616620542
C         1.46546402653105    6.28987529130485   35.03639223537736
H         1.34697517730385    5.28807004299307   35.42269493031133
C         0.80754668459322    7.34157570077699   35.60810289800423
H         0.16338301262921    7.18628701312089   36.45989168429647
C         0.95960894994703    8.63344037589514   35.08142958232832
H         0.41990211007901    9.45428359990817   35.52884316427009
C         1.77850249933827    8.85832085851919   34.01053036967454
H         1.87885429661233    9.85498778867180   33.60833277756667
C         2.49205733273231    7.79765114164765   33.40902714038484
C         3.36159945842422    7.99856493002495   32.30168346334852
C         3.67223491434993    9.38261651342029   31.88270850612637
C         3.31097104137627    9.84062280777816   30.63701298224682
C         3.46243098577856   11.19224346030077   30.28228288112038
H         3.13213034649255   11.51608277000809   29.30611606542110
C         4.00858809938082   12.07514162247910   31.16786525658521
H         4.11388191499035   13.11795408134744   30.90830248404972
C         4.46747578045452   11.63684191404239   32.42820496958313
C         5.08176748231554   12.52448601586038   33.33583767412075
H         5.19004311702002   13.56068146712941   33.05084161716933
C         5.53631413836557   12.08316205480017   34.54655465587800
H         6.00481214759060   12.76790356064006   35.23681695902292
C         5.40642045920137   10.73071467837235   34.89557004393579
H         5.78625780954859   10.39003945419534   35.84680754915152
C         4.80788984444530    9.84644189446247   34.04174309731742
H         4.72087506412396    8.80587924459006   34.31446356774904
C         4.30781607085488   10.27364268590046   32.79333621177136
C         5.62399108236960    6.09397066663820   30.07754587927172
H         6.32515524957416    6.53884470058983   29.37190951563998
H         5.10498137857118    5.25548179981875   29.57498043311002
H         6.18107906827468    5.71945146744845   30.93436367211891
C         1.37714262615348    8.84315839371319   29.42912184798590
H         1.20542145601900    8.12267463916018   28.60900205194881
H         0.99615971623601    9.81885369601983   29.12044704589973
H         0.83233923465859    8.52317815702556   30.32349382794807
C         5.05616041774315    9.51509896107712   27.55454728903734
H         4.05507973014486    9.96735864186238   27.54171933023312
C         5.29850827962319    8.85534716966881   26.18960605297579
H         6.02822001345196    8.04748473901823   26.33018150259509
C         6.09805629802542   10.55543687947515   27.94034281320552
H         5.91415720542783   10.86995748759300   28.96465083675360
H         6.03800806765680   11.42109261884494   27.28964753484861
H         7.09377233143595   10.12475855817958   27.88622871177517
C         5.77266831028728    9.81180769758516   25.10492255941654
H         5.79621033162779    9.27934990866918   24.15739652941225
H         6.76799718927587   10.18188761907717   25.32543043384744
H         5.08337764666893   10.64643375470959   25.01397754996048
C         2.08258659425004    5.66252790919142   24.09156562826784
C         0.80400774572564    5.07664674845901   24.17723716299275
H         0.01289498592568    5.58931392626172   24.70076091739512
C         0.54761392195227    3.86904891161641   23.59404859614229
H        -0.44010957404362    3.43643746357303   23.65348636321868
C         1.56379086428984    3.15639831866310   22.92780590856349
C         1.33569207232616    1.87814503782104   22.37744448051509
H         0.35091666589958    1.44445707564455   22.47205637263588
C         2.33953455076364    1.20129557676616   21.74476441543229
H         2.16016448159360    0.22356237688266   21.32467717261792
C         3.61742142416392    1.77297950196944   21.64619635369170
H         4.40789162618877    1.22193726333915   21.15957924656263
C         3.86766547450788    3.01414298828620   22.16083747851927
H         4.85711702281939    3.43966967354069   22.08706273905944
C         2.84747716144719    3.75023207228574   22.80404203467314
C         3.07330965146004    5.04455222458002   23.34803298015850
C         4.35818629348529    5.72095172013852   23.06728958143326
C         4.72696998136214    6.01788540649997   21.72488410359889
C         3.84440680448669    5.82803994532182   20.64043250321372
H         2.84896459856386    5.45755964764407   20.83164991303348
C         4.23409161001972    6.11802767309419   19.36249821832164
H         3.54839662991390    5.97004353864292   18.54210940569367
C         5.52163214245418    6.61121511869113   19.10358628859437
H         5.81416417205689    6.82635102221304   18.08722852177873
C         6.39254876008148    6.82675954804657   20.13417196262409
H         7.38105571678020    7.21997896766226   19.94745297644346
C         6.01917494668948    6.54717989526605   21.46521361181520
C         6.90214987997327    6.77989344138435   22.54082963252965
H         7.89055631927705    7.16060751588020   22.33121006772741
C         6.50799930021850    6.54567591071058   23.82632647897179
H         7.17205323339773    6.73726412177839   24.65618380402885
C         5.22685167124718    6.03151611878904   24.08707004059542
C         1.27944701301807    7.74938723056252   25.12523714680702
H         1.68150674406478    8.74639804492959   25.30345274937895
H         0.79067330878478    7.39659302724755   26.05217801772757
H         0.54399372376761    7.80690152641122   24.32495458732113
C         5.07722140633652    4.57068412674035   26.07994313962004
H         4.67176101505652    4.61083122822659   27.10655679731880
H         6.15419037307336    4.39928353807868   26.13306040533592
H         4.61773600460413    3.74087428504747   25.53238901799510
C         1.52660782820780    4.53560385312857   27.28602900204829
H         0.57959441247723    5.05548938700764   27.12316619947481
H         1.77335340681633    3.81424476406576   26.51270779377732
C         1.90877945537908    4.26546156138685   28.61407116289773
C         1.63193907052719    5.26111293192827   29.56667587407270
H         1.95009245612536    5.11079094089993   30.59251093968662
H         0.70304728664941    5.82960315198235   29.46851013638407
C         2.78969709946618    3.09578280900034   28.94816714571225
H         3.32261422103371    2.72427373242366   28.07249991620152
H         2.15548031959142    2.28846089691959   29.31796815109640
H         3.50311331459246    3.33810798942069   29.73702101000156

