31
CSD_code = PUKZAY | q = 1 | S = 0 | Stoichiometry = C4H16CoN6O4(1+) | MND = 6
C         0.79333269242150    3.45011569210090   -1.39923187608292
H         0.32630304718497    3.86891517301890   -2.29513666154557
H         1.23193728626142    2.48455978705766   -1.66305681047476
C         1.88299785692846    4.38651296210164   -0.88533979085367
H         2.65855773382695    4.51369521104575   -1.64656654063528
H         1.44789075678238    5.36573542471586   -0.67036500211706
C         0.69487576366640    4.85750003353751    3.80565458044330
H        -0.10301638151168    4.32893072109425    4.33256462009357
H         0.80026445716581    5.84961679422598    4.25464658715900
C         1.99873518390800    4.07534965647327    3.93919897514315
H         2.80566566995267    4.61948846036039    3.44296105309200
H         2.26004272294690    3.95871359842442    4.99455677793520
N        -0.18385163736245    3.24697457598303   -0.31769463981929
H        -0.79015551820884    2.45843205977065   -0.55602248885773
H        -0.79987191625067    4.05983325518810   -0.26119547927504
N         2.41691468085152    3.82249627280223    0.36646865023010
H         3.00265791113198    4.51819084347735    0.82213721355676
H         3.04427040973842    3.04987742566985    0.13503723516877
N         0.34956975242783    4.92859186673283    2.37330257646219
H         0.90537688434414    5.66632889185232    1.94421891034436
H        -0.62493869908709    5.21416661232295    2.28255273860009
N         1.82204474785861    2.77513793650226    3.27394164982526
H         1.30939058416911    2.14907140862575    3.90290508999402
H         2.73104415975961    2.33202120581277    3.12906341270194
N        -0.73246506400766    2.42213941496045    2.30548133006980
N         1.20442571781856    1.34213984698159    0.97309293325104
O        -1.70060196407073    3.03731686345462    1.95250749376567
O        -0.64242085136971    1.55693417052045    3.12795703127429
O         2.37399745465130    1.09620745111522    1.10961370494482
O         0.34178414831736    0.66203690087616    0.49703307608471
Co        0.75134240975479    2.95886948319483    1.51161364952134

