31
CSD_code = PULCUW | q = 1 | S = 0 | Stoichiometry = C4H16CoN6O4(1+) | MND = 6
Co       11.40294867578762    2.61633397924679    9.41102844900775
N        10.00042472201121    1.63654107867867    8.21074191753767
H        10.43738252126780    0.91645620156341    7.63272400801337
H         9.33899767014760    1.13981010919357    8.80883318732255
N        10.12947534836045    2.60759099107618   11.19945937409787
H         9.31867803723902    3.20584280663401   11.05012224814249
H         9.76340177173977    1.70206841983042   11.48880040962034
O        12.17225230267456    3.04558405555398    7.01680556737613
N        12.55178574899138    3.83669868656887   10.65631229924872
H        13.29454558813899    3.23779422002047   11.02903848734785
H        13.02820392641190    4.62219292877091   10.21246008391761
C         9.25568577099808    2.56333322398430    7.34088054049838
H         8.32184548446253    2.12111067501522    6.98434934236040
H         9.88120403080256    2.80199317167907    6.47924417614807
N        12.58677113960212    2.76097929054468    8.10516809126904
N        12.14138376360552    1.10379858422129    9.99168472063112
O        13.72307624751780    2.61484948085718    8.46247580613386
N        10.26313365279636    4.33765407221160    8.64454182745318
H        10.08996574410353    5.14026040300620    9.24586292070180
H        10.78740919058686    4.69303681782155    7.84324080867244
O        11.98116725834635    0.16946232940430    9.25775875102247
O        12.69092591211500    1.13799441628795   11.05394349438427
C        10.91433200970356    3.16680691331229   12.31891331510347
H        11.57860834800245    2.38757669277000   12.69627393392401
H        10.27310305500412    3.50567458024225   13.13756463264566
C         8.97618047321090    3.83926095988205    8.12619040589944
H         8.48169201696611    4.57320037500639    7.48232890905799
H         8.31364143663746    3.62255005980901    8.96803572761364
C        11.75360137177042    4.32547208247289   11.79139573801902
H        11.10300860406284    5.13349581206345   11.44786108775380
H        12.38936817693510    4.71467658227102   12.59195973907570

