67
CSD_code = PULCOO | q = 0 | S = 0 | Stoichiometry = C30H32N2O2Pd | MND = 4
Pd        6.06333675319653    5.96588661780683    0.00013055622663
N         5.08929581380719    5.49803417412376   -1.66239273958302
C         3.87019596596264    6.00094962418401   -1.91713170824095
C         3.24377413859605    5.74189389795191   -3.14365518896387
C         3.84476673956806    4.95080732144600   -4.10637657555133
C         5.11274885224568    4.44682665263722   -3.79910859398184
C         5.69323243870266    4.75020864064049   -2.58680853412204
C         3.20463243575942    4.63335813049726   -5.44455852287990
C         4.11748791105237    5.15209856496205   -6.56453904428329
C         3.04406047291687    3.11120488142140   -5.56361666855837
C         1.82671573234048    5.27999171029575   -5.60468918674749
O         5.30820677475263    7.84323076860903   -0.19559177110687
C         4.01111261140648    7.77985673907198   -0.15359194822207
C         3.22759547272729    6.87355645217451   -0.93572329126964
C         1.83688175283456    6.88750072037353   -0.81638781753372
C         1.18860427690271    7.76987361839649    0.01938535472299
C         1.93467221702008    8.69891263055061    0.73673959214276
C         3.30461162013494    8.70729049846435    0.64791285788369
H         2.28632342954986    6.19926398003634   -3.32219655601053
H         5.65354094410623    3.82856125815325   -4.49660682191493
H         6.67887608238256    4.37008291341817   -2.33361385809503
H         3.66620819598303    4.95234954054010   -7.53372165347096
H         5.09187703465620    4.67250178600229   -6.53800183308504
H         4.26184112866082    6.22591257290166   -6.46603146212447
H         2.57598295888360    2.86037073222374   -6.51275689629639
H         2.41614014213779    2.73405310299498   -4.75919549903255
H         4.00394737217909    2.60502624502173   -5.51324989141218
H         1.41521142102702    5.01725689308619   -6.57682266723822
H         1.89385228038460    6.36404074353483   -5.55113257564238
H         1.13671926617577    4.92624038800363   -4.84224567084906
H         1.25772708389432    6.16346085585861   -1.37250900267213
H         0.11351688140808    7.74479624109535    0.11043114134926
H         1.43433265890083    9.41199073396928    1.37670476686352
H         3.89101165478663    9.42774961205826    1.20069892827191
N         7.03754835540491    6.43378019099960    1.66253833455044
C         8.25668106316707    5.93090570141104    1.91720855028018
C         8.88320490115399    6.19007482515237    3.14365797102151
C         8.28229609657087    6.98125451773220    4.10635543833975
C         7.01427475675816    7.48517891072062    3.79916025028714
C         6.43368079031214    7.18166553544390    2.58694708671570
H         5.44801879030214    7.56177069393761    2.33379697001200
H         6.47354398658408    8.10351628217021    4.49664192730075
C         8.92256173094788    7.29886792915575    5.44443571005230
C         8.00979740417256    6.78032542078031    6.56458249081647
H         8.46118185505990    6.98019526390861    7.53369085363212
H         7.03542573409747    7.25995796730283    6.53807909902465
H         7.86538816437030    5.70650358560129    6.46624718358075
C         9.08319373049265    8.82103496914705    5.56324790636957
H         9.55136741041371    9.07199706489724    6.51230649200732
H         9.71105454012062    9.19804211696754    4.75871312392127
H         8.12332114880952    9.32724204058919    5.51288928712666
C        10.30046757869977    6.65220081497567    5.60452680418579
H        10.71206121601299    6.91503719914213    6.57659453183153
H        10.23329238033322    5.56814719466554    5.55110239216676
H        10.99041334100672    7.00584157866375    4.84198667021023
H         9.84067012372244    5.73272151885218    3.32216328873558
C         8.89921769183149    5.05823626849716    0.93581325740066
C         8.11565074156802    4.15192507772634    0.15374412518808
O         6.81855738260474    4.08856969047467    0.19580265228599
C         8.82210476753402    3.22438736277469   -0.64768373143838
C        10.19204169456270    3.23271724791300   -0.73655178675212
C        10.93815463758758    4.16180388212624   -0.01930610767732
C        10.28992680641999    5.04425166266803    0.81642533824754
H        10.86911909451106    5.76833252753954    1.37245350330201
H        12.01323690437654    4.18686921650885   -0.11041313452951
H        10.69233975553103    2.51960375791744   -1.37650957956770
H         8.23566490991491    2.50390274113062   -1.20039411720011

