67
CSD_code = PULJAI | q = 0 | S = 0 | Stoichiometry = C26H28N6NiO6 | MND = 6
Ni        0.28842422116945   12.30795644791496    9.90216741404512
N         0.17683689267394   12.57726747574413    8.06543193112889
N        -0.93269983767701   12.68681940901136    6.18480000899610
H        -1.63429103194772   12.50900185300516    5.48474160558384
N         2.27430862914430   13.54325802014138    9.98499061638268
H         2.98718371442231   13.00806584693520    9.48924697071864
N         0.13756312307576   12.08259855921905   11.72141355949417
N        -0.81577883371307   12.44372924911975   13.65467294747657
H        -1.33805547045601   12.89819837003041   14.38598208576261
N         1.82358734019033   10.41940691710821    9.86240121055718
H         2.66784160484397   10.57331342754595   10.40865270123482
O        -0.29919561836514   14.35286529197019   10.01632449993898
O         0.29313652235366   16.44006914243808    9.53166011421354
O         4.67743942768958   12.10529789136250   10.16311593144577
H         5.02331994296097   11.29291294982459    9.75905975896364
O        -0.90453251646288   10.63122341654705    9.73723943712245
O        -1.04429158481099    8.42081155451607    9.82937769662660
O         5.05985329925795    9.66441171969728    8.79614678453709
H         5.98857639825684    9.40946714052637    8.72655023622844
C        -0.83388313422759   12.08560791660493    7.38031738650606
H        -1.48805364001685   11.30895890044273    7.72988469418668
C         0.05876617297183   13.62289741487804    6.11340904844094
H         0.19296921072166   14.25867594248010    5.26326598299302
C         0.74783113156615   13.55061143106828    7.29180624864452
C         1.91823907681798   14.38467019460736    7.69935811300759
H         1.88228288808250   15.31639478827655    7.13232645124033
H         2.84835734767871   13.86470259387737    7.43561548976135
C         1.92922648123203   14.71615567667373    9.19228455756394
H         2.64058528694226   15.53939069926238    9.36071266391423
C         0.49706535298961   15.24165666621197    9.61840229278388
C         2.85397836395420   13.93292717199886   11.27099793775846
H         2.09261079454734   14.45762424447108   11.85303260159366
H         3.69404310048047   14.63180581937119   11.10630797552958
C         3.37114677525359   12.75287154745490   12.04225215759101
C         4.27174674008858   11.86180603713126   11.44287468104754
C         4.74237690000052   10.76290844445129   12.15202563026879
H         5.42049597931175   10.07126624597543   11.67036945531785
C         4.35051467275317   10.55585554052826   13.46260493158319
H         4.72612796677064    9.70088428647949   14.00444999924776
C         3.48216469920566   11.44461765417601   14.07079917993063
H         3.17767474437750   11.29027736388980   15.09442608734418
C         2.99785258670831   12.52798093875380   13.35700178786463
H         2.31507916718037   13.21911690543853   13.82859156844316
C        -0.52883357491089   12.95499517869876   12.44731281932989
H        -0.81121830086057   13.93590974584801   12.11280886522513
C        -0.31663007670148   11.17340274933072   13.68963387394181
H        -0.42160747150191   10.53568920979877   14.54241915419085
C         0.27724340880514   10.95190511038338   12.47741565239732
C         0.98404199644973    9.70092307790106   12.06370558627033
H         0.49058690891518    8.85905621728248   12.55436928096832
H         2.01529978958442    9.74368381323705   12.43531769493003
C         1.00523623391845    9.43151452029087   10.55878047458694
H         1.38101456675300    8.40755353548173   10.41258621767378
C        -0.45999580076407    9.47984731618055    9.99056796888775
C         2.20405768853571   10.00527019776129    8.50698293255291
H         2.84896061733813   10.78464361885565    8.09353370015496
H         1.29062194258337    9.95021775985310    7.90941453266765
C         2.90510656753729    8.66812752302683    8.43114995071766
C         4.28699571395955    8.54097305750851    8.58160928842137
C         4.89373319493539    7.29467118177433    8.50623374265210
H         5.96935124646773    7.22001068217636    8.60909084501152
C         4.13491585358256    6.15776759743063    8.29944159182509
H         4.61908197835704    5.19453738863359    8.24735009086072
C         2.76327254214853    6.26596009674255    8.15780275951850
H         2.16130673414672    5.38538085736443    7.99803781797894
C         2.16335511128672    7.51102942284066    8.21729013739954
H         1.09307824143879    7.59629103443782    8.10175258881238

