81
CSD_code = PULKAI | q = 0 | S = 0 | Stoichiometry = C34H38Cl2N2O4Pd | MND = 4
Pd       -0.00043027632845    0.00003752515663    0.00068181309072
Cl       -1.13601755691750   -0.27956584565218    2.00208799476310
N         0.80965749619503   -1.73452252479305    0.41182785743810
O        -4.62207670365813   -3.91887851564068   -2.25105562059874
C         6.79561369184308   -0.92114381930945    5.38923583749912
O         5.28487926387834   -0.83083045594901    3.56764997570524
C         5.48243330007287   -1.44268834755628    4.82723532825519
C         4.16826684217224   -1.12252034489644    2.85620950045602
C         3.16460565142747   -1.99740254929202    3.26058562584564
C         2.06721012951399   -2.22095390687446    2.44863140749963
C         1.93593700050771   -1.56289382944763    1.22745033747537
C         2.93700169734503   -0.66497742262156    0.83199190020775
C         4.03953840306596   -0.46378258082055    1.62840531053934
C         0.25566962822408   -2.88602259951107    0.29529215184647
C        -0.98305034296335   -3.15171479160249   -0.40014425182385
C        -1.68916123512673   -4.31423899881390   -0.07930276813017
C        -2.90692764722509   -4.60399165361570   -0.65999236952861
C        -3.44482837365072   -3.74047128012911   -1.61310963626476
C        -2.72328884969607   -2.59573370271502   -1.97404853192155
C        -1.52275139512863   -2.29706120046100   -1.37572834605311
C        -5.41804133868248   -5.04849798487242   -1.94466071570802
C        -6.67485613050584   -4.96759795412077   -2.79652059953853
H         7.61153893701593   -1.17032746986406    4.71640927803995
H         6.98530843427579   -1.36583937381462    6.36189173167135
H         6.74988737784522    0.15947993522750    5.49214778714354
H         5.52426302738229   -2.53507526264515    4.71392330655257
H         4.65374020649645   -1.19068628519071    5.50336246379831
H         3.21836406814622   -2.50624253619853    4.21002870929638
H         1.27730548843220   -2.86982171944413    2.79704127124680
H         2.85038512118071   -0.15109086240738   -0.11953619367379
H         4.82177198801989    0.21502833541874    1.32838012724104
H         0.71846486094324   -3.74787419814969    0.78319954641792
H        -1.28626366332565   -4.99193598817747    0.65988312874724
H        -3.42723995205820   -5.50255928619135   -0.36738351154840
H        -3.13777841185415   -1.95301838676240   -2.73434923898105
H        -0.96475394402400   -1.42312938969731   -1.71974107799037
H        -5.68057848448316   -5.04570900818798   -0.87794663212098
H        -4.86517181609773   -5.97117839058395   -2.16936538614921
H        -7.21060104293157   -4.04797275239083   -2.57812304136646
H        -7.31991731247474   -5.81618528842027   -2.58754063985604
H        -6.40910635099512   -4.97115533259253   -3.85004360722177
Cl        1.13747469178033    0.27747449198515   -2.00099769579744
N        -0.81043569580035    1.73441527250252   -0.41049647707999
C        -1.93620131437566    1.56243847220737   -1.22675544574644
C        -2.06562061354007    2.21853198433858   -2.44917077384847
C        -3.16285690835946    1.99526351953405   -3.26140829974046
C        -4.16822059702229    1.12281819526559   -2.85599473655861
O        -5.28531081296027    0.83231786344061   -3.56720308606720
C        -5.48134280569928    1.44270541333828   -4.82775247798719
C        -6.79739906919718    0.92606867861986   -5.38752311056702
H        -7.61153963275074    1.18054742245049   -4.71451791111709
H        -6.98586665766008    1.36958967319907   -6.36095862101594
H        -6.75687302330963   -0.15497265776551   -5.48815147698576
H        -5.51820832680480    2.53547087391497   -4.71655039308219
H        -4.65436033779450    1.18567854495956   -5.50409586341876
C        -4.04098999168837    0.46559630169363   -1.62723773194853
C        -2.93852889353368    0.66629472175200   -0.83061124343217
H        -2.85297850864505    0.15352099619165    0.12155526681330
H        -4.82442293440286   -0.21153001663006   -1.32653945886209
H        -3.21524840575486    2.50251590195746   -4.21177235207181
H        -1.27447420342626    2.86560257971369   -2.79811214465829
C        -0.25618999957377    2.88578591827993   -0.29465471866222
C         0.98245550655109    3.15158897786505    0.40087103343995
C         1.68879230780506    4.31385467098206    0.07959321542789
C         2.90651057228564    4.60369355482423    0.66032782250538
C         3.44417600057070    3.74051074365294    1.61389008713958
O         4.62162891078534    3.91885669793228    2.25150563230395
C         5.41864598593554    5.04719989361156    1.94310572711302
C         6.67674328935311    4.96528888804287    2.79300342511556
H         7.21090353015255    4.04477030639279    2.57451900712853
H         7.32260523676119    5.81281649328506    2.58221690465478
H         6.41276464829057    4.97012493588026    3.84696065777491
H         5.67952198659291    5.04330927858245    0.87599044210299
H         4.86734855278447    5.97077338947036    2.16799629249319
C         2.72224641648540    2.59620645043129    1.97548102457718
C         1.52177838785143    2.29735551188237    1.37702909492011
H         0.96349321093013    1.42366932583450    1.72131990642506
H         3.13640929305917    1.95392156547617    2.73633832313963
H         3.42694191325194    5.50210208835133    0.36744250941780
H         1.28607568577268    4.99128851096627   -0.65992568535141
H        -0.71844918052496    3.74728060918496   -0.78367689076634

