34
CSD_code = PULKEO | q = 0 | S = 0 | Stoichiometry = C11H10BrN4O6ReS | MND = 6
Br        3.95864649956141   12.23281093119097    6.46694042074546
C         3.20275187830037   12.50043387279085    9.51817149044407
C         2.64608242013426    9.98285043343001    8.42151036061813
C         0.49024049950357   11.62265453301420    9.26846847548674
C         0.80937379873338   13.73144459356696    5.91133769981020
C         0.78798922346761   10.18779559228735    5.82717529743305
H         1.04033251284810    9.36290242420986    6.47803695456861
C         0.29499875805636    9.81692881806304    4.54830165780638
C         0.13543733083648    8.53787044902162    4.02008443394329
H         0.38374709625428    7.62103602514986    4.51296314722213
C        -0.39596920778223    8.68849506011784    2.73808224413256
H        -0.64965525170996    7.92600134027167    2.03110566068978
C        -0.53965134731123   10.04652703532750    2.54369671748147
C         0.26265257918287   14.48443681379787    3.60006698590733
H        -0.62445995720157   13.85591506111283    3.46495925691787
H         1.11687522560302   13.98564310205354    3.12585104588684
C         0.02717227716098   15.82976688767051    2.93632022942983
H        -0.81281597876188   16.34284974583348    3.39894423248489
H        -0.20067316651533   15.67568833858478    1.88583903681841
H         0.91259229751466   16.45712935755892    3.01079882035683
N         0.69423992301865   12.43895749494529    5.51841571422917
H         0.42085514375025   12.26231108095971    4.55535807675447
N         0.98600022104009   11.38472162627888    6.31180630000360
N        -1.02773587776474   10.81216423706437    1.47618644893830
N         0.53054221544436   14.68011256048647    5.01540247961549
H         0.67163266760288   15.63161592781794    5.32350762308182
O         3.02110406565339    8.91266068516960    8.58316338586595
O         3.93850693761726   12.99274055671168   10.23385644965917
O        -1.03196619766819   12.02584909842298    1.63111914052474
O        -0.12255538188945   10.73007627970364    3.63481707439325
O        -0.43835449442816   11.53278996955257    9.92747287207421
O        -1.41136171275623   10.22069406883887    0.48515600929296
Re        2.03633560541411   11.80637307071439    8.10394712721524
S         1.22688939709850   14.15035292781600    7.48053712992548

