39
CSD_code = PULKUD | q = 0 | S = 0 | Stoichiometry = C14H16Cl2N4NiO2 | MND = 4
C         4.14206059409765    6.52272208285779    5.47619502798884
C         5.44276572749399    6.19823076280644    5.84478401241288
H         6.25799934441447    6.87483351074047    5.64838280568361
C         5.66393071051188    4.99269886155933    6.48475345341723
C         4.58691567476522    4.11621983411083    6.76709841355999
C         3.29535563235495    4.45397027272123    6.40614014299626
H         2.47091728086034    3.79957095227206    6.63616014657282
C         3.08457856547822    5.66296180961612    5.75254857980367
C         8.00654273411597    5.17833090206636    7.24788634096234
C         8.93682193288093    4.29660753222011    8.14648014895680
H         9.98864429857550    4.56284805317310    7.99089725010974
H         8.66837020417357    4.53737039603464    9.17948170537859
C         8.89889657152114    1.95843703708692    9.04599064519784
H         9.49763906277565    2.44944986912306    9.81992766180872
H         9.44921244689132    1.07421384784962    8.71612659556442
C         7.53982543269830    1.52806457321404    9.65041786450193
H         7.69032227989539    0.68259636381169   10.33748203701869
H         7.12861077002144    2.36917829291007   10.22078684603989
C         5.14868348325153    1.18325884305444    9.04230060083765
H         5.07614713870777    1.56355526055006   10.06510648150731
H         4.72997428329672    0.17377029317911    9.03735072550237
C         4.25093128601857    2.11476621804294    8.16674450891747
C         9.51935942891717    2.45983978165555    6.73820610112640
H         9.26224483035528    1.45469072761720    6.40398099631518
H        10.58428623662885    2.49012934011312    6.99826205329784
H         9.34196883300284    3.14974112557500    5.91372460020228
C         6.87929920998466   -0.11237200567119    7.98050260005256
H         6.17787746079233   -0.30915319650296    7.17119410624672
H         6.80241186568144   -0.91598859394965    8.72349380430472
H         7.88616044238368   -0.11815555944339    7.56701046531544
N         6.88000608894134    4.49441763833858    6.97309543565637
N         8.69211663907981    2.85805492992941    7.88219964551034
N         6.56644706436329    1.18277376170626    8.58556243763143
N         5.01220430469789    2.97122025253186    7.45947226239595
O         8.30090240270878    6.31274156739189    6.93236516102840
O         3.03941390492661    2.04609074569048    8.21091409562445
Cl        3.85301112803420    8.01831255430490    4.66768593565515
Cl        1.47965173438257    6.08918314228248    5.28693948990908
Ni        6.78989297031872    2.82751821943012    7.62954881498855

