69
CSD_code = PULRIX | q = 0 | S = 0 | Stoichiometry = C27H36F3P2Rh | MND = 7
Rh       13.07391361730097    1.62484132409324    8.70507668603119
P        13.39140339887904    2.37286980416250    6.60534137613772
P        14.39474572022103    3.09208104212950    9.62675108200276
F        14.67207009049333    3.01093330227387   11.20121373150795
F        15.96578976007081    3.13169696843727    9.28869543123707
F        14.32755691819624    4.69566133053422    9.65731661581339
C        11.45606929350964    0.88739327032040   10.32535287654320
C        12.75808475549920    0.26787623102212   10.45689350695560
C        12.96466770453199   -0.58521825405627    9.35350219310131
C        11.94202937797555   -0.28066150532590    8.42367350939032
C        10.95269361434407    0.53833523199845    9.08353058964901
C        10.80211616539413    1.76327135325013   11.36205822753920
C        11.85667199636451    2.25734277457617    5.53684355902182
C        14.10568724169990    4.10240650076895    6.47580780045125
C        14.65161333891795    1.37411989460016    5.64974279116771
C        10.66241392324565    2.89707638324932    6.24320328502283
C        11.96871175157134    2.73592254596849    4.09431679950870
C        13.04943378441296    5.12230866216183    6.89210182138876
C        14.77092527863432    4.51541739190289    5.16537552622003
C        14.16202371587183   -0.04995396016607    5.41264666540693
C        15.92889151310672    1.33744488391679    6.48527437144834
C        10.46556310120326    3.07605422208907   10.68665261332451
C         9.27350004205524    3.24494406321485    9.99309459887406
C         9.02538850988413    4.41719179073094    9.30078003808165
C         9.96137172423263    5.43726415236363    9.29750836056522
C        11.14602807415808    5.28343438252485    9.99813715677245
C        11.39783162621625    4.10724787120257   10.68272488075842
C         9.59633352683207    1.12914631533827   12.02166904107085
C         9.27039974938686   -0.20788875139011   11.84473837802486
C         8.17534446169957   -0.75516380708874   12.49271919790662
C         7.39423825095612    0.02559406092852   13.32557248421019
C         7.71561927378071    1.36041458428324   13.51176357756682
C         8.80974547316405    1.90571709940401   12.86669245731053
H        13.31735050376960    0.24465830628222   11.38306588373784
H        13.75859183800409   -1.30623329562822    9.23183257401463
H        11.74310430120731   -0.83181407212209    7.51409684240582
H         9.97705632149099    0.76933919820027    8.68911694755947
H        11.54135696863743    1.96073403072709   12.15075556516527
H        11.68149971999558    1.17293317162306    5.53068822194995
H        14.88206218858609    4.09494233695841    7.25271976276102
H        14.84765965566394    1.85471386209491    4.68638633867298
H        10.72530165655416    2.72861772874735    7.32060037032686
H         9.73211818282562    2.46448958314924    5.87858694117534
H        10.62323644573280    3.96844467662559    6.07118410352907
H        12.84360171672634    2.32102688460765    3.59931717782977
H        12.01604304461092    3.82075515317858    4.04708186088058
H        11.08578424245644    2.42017514656119    3.53893136641493
H        12.46143403367609    4.74483908113336    7.72911119229297
H        12.38124873473788    5.34464077205605    6.06398028943823
H        13.52397819575178    6.05177512279656    7.20071584036614
H        15.64167668690792    3.90428641870085    4.94471273631427
H        15.10779298910060    5.54746747202063    5.25687861943360
H        14.08422677272773    4.46146177267450    4.32665838441093
H        13.31605481310225   -0.08032280397840    4.73016631607528
H        13.87082848650814   -0.50009976949416    6.36055525738860
H        14.96191854979267   -0.65065798324905    4.98194173751355
H        15.70489458639427    0.92040221285952    7.47091883834161
H        16.35003592973497    2.32968831804058    6.62635800951587
H        16.68105326123645    0.71142342655371    6.00803227476511
H         8.53475760856838    2.45609999749337   10.00047420139357
H         8.09671330749534    4.53370103731847    8.76075102866549
H         9.76653274324595    6.35132585828868    8.75591201153368
H        11.87652080984837    6.07852945709225   10.01401532332402
H        12.31500330630942    4.00164351912177   11.24738778614063
H         9.87624335246713   -0.82721105753205   11.19942915433923
H         7.93418143892359   -1.79835557227785   12.34570846246445
H         6.54044880056779   -0.40227575060358   13.83071834342992
H         7.11282144606589    1.97686255748940   14.16328248974511
H         9.05899058678035    2.94747204306479   13.01455651665300

