53
CSD_code = PULSOE | q = 0 | S = 0 | Stoichiometry = C22H26Br2N2Pt | MND = 6
Pt        2.26833688881262    3.13322557466641   -2.04431140717524
Br        1.98832894261497    2.64882434900730   -4.56619907545909
N         4.34314183799523    2.80383606273474   -2.42664866956312
N         3.10087903456021    5.20373002721763   -2.72414898741846
C         0.24689678476508    3.45529287042852   -1.75386370383831
C         2.45570205480747    3.43082957077545    0.00217704786385
C         2.34182299885513    1.16445652624145   -1.64408634589339
C         1.33658623293409    0.28073335369029   -1.29620616391978
C         1.62017240243601   -1.06332460274719   -1.09922945141034
C         2.91083648512579   -1.54800630381898   -1.24965539883553
C         3.92328680838524   -0.68769936445031   -1.61717171949326
C         3.65194888348941    0.66781867669959   -1.81804204765629
C         4.66182156345671    1.57655508945623   -2.30567482215438
C         5.09272007017902    3.81315536065932   -3.12055365039342
C         6.61454239695915    3.76273058915095   -2.94907457457939
C         7.02946029418228    4.11145038183476   -1.52376727907025
C         6.52528520881472    5.50511639227549   -1.16508329574142
C         5.00678295135801    5.55319151033461   -1.27756649448234
C         4.54830165767144    5.19537181792233   -2.69484612773062
C         2.51905313518391    5.99313970529016   -3.52006984103910
C         1.06217968247853    6.15598329385483   -3.56238741357234
C         0.35046769646733    5.78262491853374   -4.69917949584139
C        -1.02394640960202    5.92686985917626   -4.74423292247346
C        -1.70311339457293    6.47431887198058   -3.66810230755225
C        -1.00888281526413    6.87967960583221   -2.54180745845654
C         0.36325799194205    6.71051512000461   -2.49461286779991
Br        1.30280241099231    7.30658848146500   -0.94649837936378
H        -0.24672902189094    2.70338192064646   -1.13811147808556
H        -0.25969781773394    3.47626379918701   -2.72282739323739
H         0.08465443900503    4.41883425992435   -1.26455680167036
H         3.42910853015487    3.07222428784721    0.34202486942816
H         1.69278561385874    2.91189233655570    0.58021519680180
H         2.37419042599014    4.49731244812459    0.21235604008976
H         0.31759584906201    0.61735524097402   -1.18289391252474
H         0.82145016755952   -1.73800787639851   -0.82808308606521
H         3.11842127726088   -2.59583105000215   -1.09330869996552
H         4.93034176817113   -1.05269988794336   -1.76234310767467
H         5.62572079589787    1.17397917498177   -2.61905415425448
H         4.86040364036645    3.68281190609633   -4.19131304861240
H         7.05638299212107    4.48187574985255   -3.64246981151266
H         6.98456222476816    2.77442385708129   -3.22701368853682
H         6.60919641258523    3.38121472842515   -0.82767560375934
H         8.11683469901058    4.06941437736996   -1.43858901384350
H         6.81944889263414    5.76101789953251   -0.14611051094977
H         6.97301140242973    6.24020341030172   -1.83862180591345
H         4.63266535329877    6.54713421876829   -1.02297026569407
H         4.57187282963413    4.84132532870183   -0.57730965469413
H         4.94377613352295    5.94471213784519   -3.40242203974642
H         3.08708576399129    6.61030230424255   -4.22909229947158
H         0.88108111335201    5.33945413042840   -5.52754891997108
H        -1.56344890969422    5.60970569774858   -5.62279688616260
H        -2.77535647370660    6.59187386583372   -3.70189196152574
H        -1.52582989667423    7.31741799564944   -1.70144910940739

