55
CSD_code = PULTEV | q = 0 | S = 0 | Stoichiometry = C22H26Cl2N3PRu | MND = 9
Ru       10.03007526642643    5.59996655062320    7.86789504686011
Cl       10.60578105109503    3.38320190413452    7.27359775465142
Cl        9.87971193619938    6.25147305819020    5.61194330640506
P        12.27457847508581    5.64477477486003    7.67791171284523
N        12.89200419428850    7.22175138218295    7.87702827016886
N        13.13952065091011    5.09205294254290    6.34118616861281
N        13.11158691398284    4.85971414934627    8.92595039230492
C         8.76198382621739    7.40781344296138    8.47418971469052
C         9.70344246855658    7.16051507912198    9.48789651158362
C         9.76816414807065    5.89524397341885   10.13045813593809
C         8.91907004244070    4.84689896903479    9.74347575457646
C         7.96155191600301    5.09906561470411    8.71731803283404
C         7.88322931899228    6.34841714465710    8.10393886915871
C         8.88971544334859    3.52746680109015   10.47554348072730
C         8.03445162368909    3.69578181205128   11.73751357830130
C        10.28071232190509    3.00111203312882   10.82356289006164
C         8.61863708536720    8.75162238594524    7.82912211219011
C        12.24128048863939    8.29266968158318    7.30539422263985
C        12.96205200145035    9.42113960142507    7.54250010916266
C        14.10560169870199    9.03941838595116    8.28570035153423
C        14.04294341003587    7.69240709342525    8.46668866065990
C        12.67390422681997    4.58160349700542    5.14944277531636
C        13.73350238749508    4.34408751221431    4.33492580094052
C        14.90581536863408    4.72527924634461    5.03570226446705
C        14.51881393372239    5.18231923910530    6.25367629731473
C        13.55317686277537    3.55725190444605    8.89507575592092
C        13.91235881513175    3.18914163750665   10.15394329224949
C        13.66003245777341    4.29256236899892   11.00655286380604
C        13.15167074011665    5.28979854631765   10.23406998231042
H        10.33585462994553    7.97071188015313    9.83817796071750
H        10.44313448813442    5.75906808869890   10.96630848749606
H         7.25606593181377    4.31911424925358    8.45009199328547
H         7.12092370199352    6.53956084593691    7.35484379808961
H         8.40803893475775    2.79109005512884    9.82274875395638
H         7.95584819683213    2.74562811537732   12.25935241866146
H         7.03164717625447    4.03585735165189   11.48540294124000
H         8.48691254711365    4.42264972247716   12.40966297999278
H        10.19821155249984    1.99643422462880   11.22988046035372
H        10.77611328667664    3.62471345892931   11.56395707754922
H        10.89872606134994    2.95615954220285    9.92907969603806
H         8.70242958293407    8.65191454301800    6.74590901240257
H         9.38646050607835    9.43853492957368    8.17771542733560
H         7.63715755030463    9.17103876450417    8.05258305831066
H        11.33463641871149    8.13648922751133    6.74932859220749
H        12.71638721866290   10.41517278547793    7.22460969994489
H        14.88070852767120    9.69117031496881    8.63850889119851
H        14.71783637330546    7.03732489055995    8.98214915682573
H        11.62535057007470    4.42656246391853    4.98844061078468
H        13.69284101648184    3.94175339610212    3.34250821163679
H        15.91266602560542    4.66200704648704    4.67179413780668
H        15.10429745641938    5.55753977623018    7.07051073432195
H        13.57054092620004    3.00728668371448    7.97446892805362
H        14.31603299167575    2.24152110300771   10.44958869203978
H        13.84270736626793    4.33338515497469   12.06279457217688
H        12.84700188833799    6.28636065312116   10.49347959933545

