72
CSD_code = PULWUP | q = 0 | S = 0 | Stoichiometry = C34H24N4O7S2Zn | MND = 6
Zn        0.69765676186750    0.65982286114623    9.11026559648147
S        -3.33151620926938    2.16035466930494   16.02906139740013
S         1.34102204492770    3.59519888352318    9.37569498271245
O        -4.14774957588720    3.03781029428886   16.83453053193017
O        -4.06744907388408    1.39875415852638   15.00719163184625
O        -2.35363810154446    1.34808934866826   16.73491116156302
O         2.42691855434888    4.50747049812848    9.16075967174596
O         1.81144351666256    2.17353249137971    9.27130632681270
O         0.18417628506346    3.78963761602365    8.48979816102772
N        -0.93486407981424    1.05066072154627   10.32056933454942
N         1.38967945643986   -0.20084812453287   10.90155589147516
C         0.73751413640595    3.68986773980349   11.04426573371420
N         2.16601942748591   -0.24063056297217    7.85548030335354
N        -0.21766588734029   -1.26651945913956    8.54289563363889
C        -2.07461627557275    1.64731256067560   10.02933397446129
H        -2.16125960032301    2.03796781364963    9.02612866956706
C        -3.12723689574496    1.76553913136676   10.94103581214724
H        -4.03852725420505    2.25580502147022   10.63776100505444
C        -2.98461485803155    1.26059322789341   12.21292068828545
H        -3.74886642978243    1.33161759062644   12.97966249489141
C        -1.76707969810915    0.64609562237845   12.55504988302608
C        -0.76909217060786    0.55649534974257   11.56147912070039
C        -1.52376091193726    0.14044529605795   13.86580191950731
H        -2.30907286626852    0.25188033286974   14.60349991162703
C        -0.32234379501508   -0.40592379734769   14.17699260228805
H        -0.12786428826896   -0.75373902276020   15.17969040412637
C         0.70884264476033   -0.51966958641371   13.20139488081545
C         1.97361770926745   -1.06409601666022   13.48057752023751
H         2.19586593447989   -1.40401888697483   14.48137708696053
C         2.90715758610862   -1.14932649683932   12.47509436698542
H         3.89092036993309   -1.55123215800398   12.65971348645913
C         2.56494585671602   -0.71517131157619   11.19256463429321
H         3.27109793487514   -0.78939075319390   10.37780775855604
C         0.47850328990753   -0.07130303370303   11.87846889028737
C        -1.39505156370660   -1.75003200532583    8.87392303437518
H        -2.00581074015298   -1.13643658133040    9.51795528280806
C        -1.86452763060351   -2.99023397334999    8.43048140020430
H        -2.84061770595779   -3.33095722229016    8.73641449069662
C        -1.06982491499072   -3.75290341422612    7.61012696053229
H        -1.39693861868340   -4.71605824125166    7.24732636700102
C         0.19431338087559   -3.26075484260962    7.23678148625151
C         0.56995116940211   -1.99380023342899    7.73847427764645
C         1.08644841184326   -3.97454204735557    6.38983507493573
H         0.77564671428854   -4.94038807111664    6.02090538154030
C         2.29592279086680   -3.45843687155187    6.05050787789499
H         2.96885216974455   -4.00427495982265    5.40650329898320
C         2.70653707612956   -2.18442981040715    6.52998896241051
C         3.94342402551894   -1.59626909055522    6.20402108986946
H         4.63100526039583   -2.12565231940738    5.56076443208432
C         4.25004453519595   -0.35611355260443    6.70989965893671
H         5.18740362455112    0.12378369002416    6.47804906093446
C         3.32626531607735    0.29315658183779    7.53673132950137
H         3.51919995161790    1.27085675703458    7.95461905593121
C         1.84512059649352   -1.44884616652456    7.37480695077647
C        -2.35015342898630    3.19151117768343   14.90037911762526
C        -1.02655515689545    2.91882083373228   14.74003198687427
H        -0.51988678157521    2.34222367106097   15.49828974991077
C        -0.35807549120449    3.30922101730936   13.55998537568705
C         0.97479903009410    2.92583294673292   13.29382177397372
H         1.54113610735330    2.45066589360449   14.08185228927298
C         1.51159495307275    3.10139121409296   12.04887728259641
H         2.50971871570691    2.77680469722004   11.79938292898684
C        -0.51385349765168    4.16859112162673   11.28874082058083
H        -1.06910460872496    4.62682436748394   10.48445124446442
C        -1.10078213111373    3.99633448118060   12.55880857988153
C        -2.43728252429236    4.37511069617513   12.82286036607079
H        -2.96800211450693    4.94610720600094   12.07445453148356
C        -3.05580144990187    3.95811483035135   13.96842049624909
H        -4.09382052010786    4.16672113284482   14.17425058114623
O        -0.28289374110505    1.53882031591235    7.41370318196524
H         0.19395048924968    1.56677281080786    6.58017246177035
H        -0.20031523594364    2.48108194154549    7.77136028962915

