68
CSD_code = PULWID | q = 0 | S = 0 | Stoichiometry = C30H24N4O7S2Zn | MND = 6
C         7.20898290592506    3.41002661605622    3.11867295545346
C         6.20661705189654    2.46771138829907    2.85610808067451
H         6.00643327185301    2.21350780109167    1.82734286945266
C         5.56131019471723    1.86432701578982    3.89628460501690
H         4.81495042596013    1.10263068667417    3.72233612082286
C         5.93538915365158    2.15402939807257    5.22821804977174
C         6.83719228658371    3.22554451193610    5.48230909432468
C         7.47187555506247    3.84140005330818    4.38329853103819
H         8.23514200800316    4.58818110701249    4.54243633064290
C         7.20749798923391    3.50933087805845    6.81631287938480
H         7.81863943694029    4.37937921686580    7.01037163591421
C         6.89285286915756    2.62734868916407    7.81304747425431
H         7.25209102790987    2.75290098665753    8.82224703249383
C         6.15314932448503    1.47556697531442    7.52427112017612
C         5.59768942380588    1.29617649441487    6.29308716887496
H         4.99077715867353    0.42249751352378    6.11302873737758
C         9.89963274846883    0.78855270816204   -0.79449838102657
H         9.14386455849953    1.55634288697465   -0.71718945319713
C        10.45937161097287    0.42223830535037   -2.01002165486062
H        10.13697379824015    0.89857662372218   -2.92158272470174
C        11.44521010312029   -0.55111190650293   -2.01830824407305
H        11.92029292795764   -0.85094837246083   -2.94030963281423
C        11.82072099041218   -1.13120560944112   -0.81815564462272
H        12.60415867105469   -1.87135373769708   -0.79582358140972
C        11.19536415406877   -0.71675405704131    0.35646061180124
C        11.53908490126840   -1.27075119675433    1.67411084639740
C        12.15271609534604   -2.51432858319317    1.82235952477575
H        12.35697160925766   -3.13181727954022    0.96289182261668
C        12.47334751384183   -2.96143839631988    3.09198241794190
H        12.94147159713770   -3.92389363595063    3.23210992301490
C        12.18492568774310   -2.14669318124105    4.17497637285657
H        12.42928876052755   -2.44293210874500    5.18177962718874
C        11.55785653888234   -0.93362650137050    3.93638753198176
H        11.31757241154716   -0.27783035058931    4.75912005390199
C         7.50386588242237   -1.00899117626190    1.86470806755458
H         7.75278976718862   -0.90811930608143    0.81757834735719
C         6.47342329696244   -1.83159544050634    2.28521894257163
H         5.89171179368593   -2.38587278364380    1.56569835697131
C         6.21543984661288   -1.92310098181751    3.64593156709218
H         5.42612069464844   -2.55886832484447    4.01702478196279
C         6.97765302735974   -1.18094452543249    4.53183266021616
H         6.77698548293060   -1.22613050312308    5.59750217181137
C         7.98209798835230   -0.35895798790591    4.01595728868958
C         8.78316458224047    0.52089774630962    4.87606969076634
C         8.77356779524883    0.40566551259661    6.26395403462810
H         8.18163346408809   -0.34002302991376    6.78080651852606
C         9.50880835590066    1.30686752292739    7.01839553522451
H         9.47765062341347    1.21637563303669    8.09457348320730
C        10.21236817473742    2.30539533152224    6.36267130249192
H        10.77318195994198    3.04800062548182    6.90783138639962
C        10.18395766540881    2.33845614741098    4.97719783578232
H        10.69743688971110    3.11500901349655    4.42840758190166
N        10.25939478949902    0.23372737877891    0.35144649313348
N        11.22864283466240   -0.51054411807658    2.72717263844108
N         8.24184794845831   -0.29837217307358    2.70488622391172
N         9.51321244710473    1.45679322344694    4.24619944705966
O         8.58555829562919    2.30510679784307    1.29967759216544
O         9.59952346157787    4.21392315709932    2.38585710652439
O         7.79119090858435    4.52955095353323    0.76123548041173
O         7.66484896220102    0.29800569271183    9.21770377135950
O         5.25367972852960   -0.15275887553048    9.44591809511761
O         6.52408553828423   -1.04266467860103    7.54315269024603
O        11.36386393087737    2.42644825327798    1.93737869311608
H        12.08688846356782    2.56031376216438    2.55632663860357
S         8.35490443268508    3.70571646993787    1.79032531314326
S         6.39013591628274    0.00544376220991    8.57223163188310
Zn        9.70629569235892    1.09555272599679    2.20625599737812
H        10.77765459664366    3.23860925537291    2.01711053284470

