61
CSD_code = PULXAW | q = 1 | S = 0 | Stoichiometry = C32H20Br2CoN4O2(1+) | MND = 6
Co        5.28320377359099    8.43337922652506    3.37953898841046
Br        7.62643820916280   14.38546508052855   -0.25064235114577
Br       11.62053854483166    4.79162665791893    4.19880244619313
N         4.18720085711618    6.87653506529835    3.18006575036050
N         4.61152929286989    8.95728549074033    1.68559581712816
N         3.92052625695181    9.33702237338602    4.37533792351711
N         5.98220659225589    7.91648019228029    5.06459914687170
O         6.36704016033382    9.94140319916322    3.57385397667193
O         6.61922497893059    7.56996823442824    2.40194924279327
C         5.06607431328671    9.95343850543172    0.97540202662125
H         4.72302978340925   10.06671733956551   -0.05050763599857
C         5.98067583928971   10.92727592491737    1.41876531531100
C         6.58414646889056   10.86702205790886    2.71664970444862
C         7.48720481140078   11.90776535191969    3.06776970134816
H         7.93753170124926   11.86184163616129    4.04683739985481
C         7.78481792890763   12.92256267412563    2.20585518950427
H         8.47537771270907   13.70051651559545    2.49361787763960
C         7.19425845195474   12.95932935211472    0.93141864796855
C         6.31835310662083   11.98602032810282    0.54364233480394
H         5.86835830730502   12.02032472238999   -0.43716074287976
C         4.04190036195980    5.83213071056024    3.96893303389406
H         4.57791921661014    5.83811300302769    4.90746821497191
C         3.23474101638227    4.73615160658777    3.64244392226085
H         3.16623808879384    3.91119493106879    4.33282499062813
C         2.54981738874348    4.73096294435603    2.45542508884207
H         1.91862693370903    3.90171195053532    2.17478667326485
C         2.67902370931196    5.83276143291022    1.58674407947558
C         2.01659057795745    5.93776640176904    0.34666671646685
H         1.36930995588748    5.13554497756498    0.02990527670762
C         2.19743800702465    7.04840381346064   -0.43433109357678
H         1.68416399624196    7.13118645818927   -1.37967923895260
C         3.04461630619697    8.09036598891853   -0.03933505190251
H         3.14435763778041    8.94108572474239   -0.69440551962745
C         3.72813123117879    8.02318907859409    1.16121185572879
C         3.52795594633925    6.89099389439330    1.99539002085378
C         7.14180764429808    7.34754751047001    5.25177027425346
H         7.51678906357641    7.24104234081824    6.26719000705083
C         7.98017943088380    6.84094180316936    4.24087652175395
C         7.66290258727952    6.98011171013077    2.85080316912286
C         8.57428320329595    6.42321113126635    1.91215922709596
H         8.33137675540021    6.52639101196508    0.86629477245647
C         9.71695529229881    5.79151377378244    2.30755365030714
H        10.39718697299650    5.38198717132672    1.57642327126841
C        10.02062246248509    5.67666643415167    3.67469081545774
C         9.17785135157020    6.19007155413240    4.61867263886518
H         9.41682943144731    6.09755929694866    5.66747328650633
C         2.91253339744473   10.07576917038781    3.96025180239305
H         2.77423727034508   10.17584860268720    2.89291036451724
C         2.03103922226269   10.72342119698758    4.83371187127006
H         1.23012816890674   11.31787607186384    4.42498098285302
C         2.20208831379738   10.59170631027692    6.18700873361129
H         1.53924295752555   11.07706261543523    6.88694149527747
C         3.26920025093607    9.80739124814670    6.66813812104310
C         3.53580927096415    9.59795968154183    8.03660138091667
H         2.89399827549897   10.05811891571994    8.77092800637289
C         4.59546888634069    8.81731822135158    8.41601426825019
H         4.79455383018423    8.65198148156110    9.46340149268422
C         5.44264710545363    8.22502953421488    7.47215910924780
H         6.25870150105887    7.61833636550930    7.83100920483459
C         5.22946095916760    8.41612295795519    6.11895124762890
C         4.11753892939583    9.19967104301698    5.70974455650265

