54
CSD_code = PULXUR | q = 0 | S = 0 | Stoichiometry = C25H21BrN3O3Re | MND = 6
Re        0.66297674526763    0.63473056367021    5.24803557734059
Br       -0.02104923322429    2.92651231672023    4.28381897305389
C        -7.51255977186582    1.34297595389909   11.05210365761412
H        -6.97678510053103    2.27804582449737   11.10968517785359
N         0.22774791483257    1.55760624340208    7.14433825218949
N         2.48758349802329    1.66226263345125    5.76452474099811
C        -1.00646750265844    1.51045413898895    7.78370204385326
C         2.37799387411617    2.46485335783290    6.84690474127583
C        -1.63492188134070    2.66511154886416    8.26066923747949
H        -1.17657863918438    3.63101291377562    8.10179055235651
C         1.13613002089206    2.37810973745004    7.56272971177637
H         0.99265110740685    2.99768813003778    8.44375352571554
C         3.40456870260809    3.33158793671782    7.23261088387589
H         3.26861512563805    3.95709786758374    8.10116792804471
C         4.56106470603615    3.37849862394706    6.48454423460360
H         5.36544198836281    4.04584233602816    6.75272223542021
C         3.61120583149215    1.71311790935528    5.05634235135990
H         3.66782827769324    1.06034581295922    4.19456238273183
C        -4.82421423653435    1.33974989743288    9.65269793442035
H        -5.15047157453177    2.29910126473339   10.03171659384378
C        -2.87148473239901    2.58244676527239    8.85511654681314
H        -3.35560051387914    3.48830212245353    9.19115667493961
C        -2.88233872978364    0.20508490604283    8.54430906751477
H        -3.34675177947867   -0.76136528505186    8.65785811842200
C        -7.68010464383912   -0.93837216482809   10.37913097341780
H        -7.26623985056978   -1.80993584844935    9.89103596874433
C        -5.63422794522376    0.27056258212126    9.78252910495648
H        -5.31766172231943   -0.68115511847253    9.37557032865623
C        -3.52963461547849    1.35521933273908    9.02028584155399
C         4.66576086233674    2.54921249167765    5.37290582999425
H         5.54941723784270    2.55403192473251    4.75592423540683
C        -1.65764005541679    0.27976899055602    7.92824859472940
H        -1.16828994078756   -0.61754786778939    7.57207290179375
C        -6.93119412383214    0.24538881456420   10.40547556927786
C        -9.50994018909518    0.07905864013106   11.59221831280994
C        -8.92729509664389   -1.02588466395186   10.94774913840043
H        -9.45367415752611   -1.96426693612255   10.89014242379542
C        -8.75710389774473    1.26635139154012   11.62813434586675
H        -9.15098740908039    2.14447475168219   12.11294523525386
C        -1.16103001520887    0.02079750412666    4.90520158032790
O        -2.25893180295229   -0.23331986798954    4.70885373011336
O         1.57856303201107   -0.12571572110300    2.39079056771083
O         1.55936954521935   -2.02588528051483    6.53152146602616
N       -10.74854178571639    0.00182108415077   12.16236657156837
C         1.22465465766363    0.09794669278035    3.45646889681628
C         1.22728964129078   -1.04035606307871    6.04431871283716
C       -11.33159012712926    1.15286156139957   12.80543144367016
H       -12.31286177408863    0.89425757969600   13.19530701363675
H       -11.45243311499173    1.98312109465859   12.10227218693514
H       -10.71288886277223    1.49122196530919   13.64208641024026
C       -11.51567263342591   -1.21620294190641   12.08093056635943
H       -12.47479578908088   -1.07638199433375   12.57324098761358
H       -10.99691095934613   -2.04253687408180   12.57654877590022
H       -11.70498856105352   -1.49700857931239   11.04003114209736

