64
CSD_code = PULZEC | q = 1 | S = 0 | Stoichiometry = C31H22N5O4SZn(1+) | MND = 6
C         1.58015363720974    4.97570610832000    4.92938452202419
H         1.98690985986984    4.60499940113474    5.85913324303652
C         2.21601488580892    5.99517049297264    4.21758634686972
H         3.13352906086229    6.41909679976163    4.59333409970047
C         1.65922484377593    6.43398476309467    3.03967515625016
H         2.12531851309505    7.21543003205296    2.45767920207794
C         0.46740627216590    5.84677772291564    2.58379913263665
C        -0.16562952942636    6.22471800688550    1.36479235282603
H         0.28600225081286    7.01091651652709    0.77866155871089
C        -1.28908582600033    5.59904747700348    0.94191689114435
H        -1.75740145025833    5.87291290174757    0.00848276223596
C        -1.87272041839040    4.54433441425498    1.70123606542845
C        -2.99941036656596    3.82707119601029    1.26989111438741
H        -3.46441929847326    4.07843028359672    0.32792069183455
C        -3.48142865815871    2.80495453171183    2.05178202386229
H        -4.33679749359505    2.22367551852704    1.74732811692247
C        -2.83337261943581    2.50716424418695    3.25064119141810
H        -3.19121458618974    1.70535631039797    3.87977259379333
C        -1.28667037266718    4.15931390221656    2.92578420731948
C        -0.09672807241351    4.82196248789810    3.37407238641479
C        -1.70176541312570    4.72976904106780    7.03047656971992
H        -1.06793983239439    5.43286197359814    6.51051357938235
C        -2.54227073037882    5.15497426495755    8.06426717113776
H        -2.56021959557111    6.19493171408209    8.34777813607927
C        -3.33398594873058    4.23138775446576    8.70290454992901
H        -3.99724896629261    4.52019123499399    9.50460921714395
C        -3.27378480164017    2.88568907774653    8.30144342666295
C        -4.05909231608455    1.86076077715120    8.90415220371808
H        -4.72763429056640    2.13571133551064    9.70567078534289
C        -3.97190142624640    0.57631856104090    8.48197321723752
H        -4.57011853151216   -0.19816413985393    8.93725491219945
C        -3.08788722058644    0.20990495074765    7.42601995044595
C        -2.96695762344774   -1.10811683390065    6.95081640864483
H        -3.56217256498972   -1.89190039417738    7.39544547889033
C        -2.09449240817640   -1.37069452949762    5.92273865032415
H        -1.98200388747884   -2.36712424701520    5.52726631510884
C        -1.34014643544800   -0.32304911028625    5.38248661903093
H        -0.66341053201644   -0.49407910675404    4.55871620561121
C        -2.28748818604890    1.19792498000511    6.81132306877030
C        -2.38674425283647    2.56004513511532    7.25068850955239
C         2.09906879100789    1.02300118056676    4.26138066452034
C         2.62850979909423    0.25051835123259    3.10528958764995
C         3.80782723390269   -0.47728014231932    3.06780608293407
H         4.45027646370841   -0.50610164905870    3.93396548861678
C         4.12403922677820   -1.15312619867857    1.89817187137619
H         5.03666180938513   -1.72669898836461    1.84405469683637
C         3.28290924335689   -1.10194780393716    0.79541327957857
H         3.54793790584409   -1.63543332309837   -0.10437602387323
C         2.10092077247028   -0.36865448731597    0.83229076918580
H         1.44121700892859   -0.31833309563650   -0.01900720896097
C         1.79696777255463    0.29322254697836    1.99838988040886
Zn       -0.36735257435693    2.60632434000959    5.11926903018505
S         0.43497269398098    1.35584464404761    2.44605382955078
O         1.05600085147313    2.47500659822735    6.80101793046483
H         0.89860562246588    1.98165814492348    7.60966782503550
H         1.80741151924026    1.99103696301163    6.34129850180994
O         2.68721117690073    1.09734761385302    5.34196800560240
O        -0.83392098938758    0.67671925197570    2.45227432068141
O         0.48745273323604    2.59230660798937    1.71529921569323
N         0.46105127781859    4.41143590166094    4.52385866158602
N        -1.77465265114017    3.16142408589650    3.67881076905357
N        -1.62661811061936    3.47916369382105    6.63628556200031
N        -1.42950354606501    0.91495570677267    5.81663443945034
N         0.92079030096105    1.59504450723333    4.00656418679130

