65
CSD_code = PUMBII | q = 0 | S = 0 | Stoichiometry = C27H33N3OW | MND = 9
W         0.58436833863213    4.43715111842315    2.16713460108583
N        -0.73227976364657    4.07421433871068    3.39731784646177
O        -1.71900459206225    4.33692624601200    4.10527465493649
N         0.16377146155779    2.79965962204132    1.08854026359772
C        -0.79170095832993    0.53511504029701    0.82061023636306
C        -0.32711175004137    1.68280016315389    1.66786153008762
C        -0.29835128711672    1.67987196965952    3.03307689875359
C         0.14323894063766    2.90806434023790    3.65834931040739
C         0.69765099373316    2.86127871597838    5.01571416547200
C         1.35633113296485    1.71401803182952    5.47324674873594
C         1.92320961603749    1.67424133164212    6.73154289136746
C         1.84971374868496    2.77625023415311    7.56822692016720
C         1.19695949868509    3.91819508442678    7.13262211415420
C         0.63004349501646    3.96537648844169    5.87353945189978
N        -0.77272539322092    5.30059043962880    0.83458052065445
C        -1.31078680054318    6.50944149279084    1.03105368676103
C        -1.37013824708969    6.94925220133755    2.46927174997077
C        -1.79666541037344    7.30364599104487    0.00995797048263
C        -1.73628616455293    7.01830727054891   -1.40197205353214
C        -2.27188818288568    8.07025736703135   -2.07484513797549
C        -2.69727848263899    9.04945710666220   -1.12568476873586
C        -2.41414689115205    8.59774013915063    0.12436883353067
C         2.83403943941081    4.15046808677893    1.40316567864938
C         2.28934512078121    5.31174299030519    0.80685076270577
C         2.00875129266019    6.25677316884908    1.85570706010887
C         2.35875722415242    5.65642300180500    3.10663252182520
C         2.84989640380201    4.33491015333773    2.82237007047804
C         3.40393433545699    2.94833817042644    0.70644461570328
C         2.22370021171395    5.63950605368831   -0.65812014773537
C         1.73092241843539    7.71364778494438    1.61169031950091
C         2.52000358255750    6.38984402202655    4.41013321629864
C         3.61417422699951    3.45085097743808    3.76411457729823
H         0.24645320248184    2.71913110715044    0.07245768826999
H        -0.02624611125682    0.25758811439760    0.09549401880066
H        -1.69135444067359    0.81660952120672    0.27357227224573
H        -1.02082432688321   -0.32744051864289    1.43861161209488
H        -0.56715971952876    0.81541030389888    3.61861956332325
H         1.42965544071673    0.85311624874683    4.82503144916574
H         2.42775556309972    0.77825725884004    7.06331489183269
H         2.29248482280877    2.74381291577406    8.55244370381862
H         1.12525828780769    4.77874325979117    7.78256764857361
H         0.10006048346933    4.85745874387590    5.56696710851461
H        -0.88483309080711    4.99314241979818   -0.13089606260346
H        -0.49112184259907    6.57511739239515    3.02260904771392
H        -2.25830765456176    6.51764896712078    2.93490606530274
H        -1.41988055394962    8.03027280422448    2.55521106278100
H        -1.32592657016170    6.12628214763786   -1.84746098260286
H        -2.36566318214132    8.16654875166206   -3.14285742435776
H        -3.16291894927713    9.98618866843310   -1.37836102093217
H        -2.62692430761489    9.10758941126415    1.04640852509568
H         4.49014465515603    2.94134009591838    0.81126545197244
H         3.16815408811317    2.95918640860557   -0.35529077526892
H         3.01878594046038    2.02462834598150    1.14054032628408
H         3.11813681070291    6.18916305903732   -0.95813386970410
H         1.35966879826669    6.26565750816342   -0.87878332995590
H         2.16285765358305    4.73879799343800   -1.26694964436974
H         2.63005523483108    8.18861759930886    1.21358962451585
H         1.45980207018211    8.22674511250498    2.53157495090236
H         0.93070152525784    7.85818040010256    0.88559740542304
H         3.46321286401745    6.94079814334785    4.40699396004090
H         2.53529309548395    5.69782753299816    5.24944167092085
H         1.71478213915627    7.10570477690371    4.57279060779709
H         4.68383045984596    3.63517091579283    3.64271796259271
H         3.42747537505504    2.39825889602735    3.55836394789523
H         3.35264468067046    3.64598655150503    4.80066543446494

