208
CSD_code = PUMBOQ | q = 0 | S = 0 | Stoichiometry = C108H90IrN9 | MND = 6
Ir       -0.55008047464068    0.87962972662086    6.59455119774095
N         1.29586475631198    1.86613841623250    6.36696782757674
N         2.56791199095227    1.70042109136860    6.72477330549150
N         2.34089107493103    3.70699943574356    5.87268782260318
N        -0.40353271301397   -0.22120102777141    4.83300275571950
N         0.48724125689878   -0.40553690494207    3.86401394725353
N        -1.24785036207988   -1.68630515162665    3.46596184628130
N         0.34086981724000   -0.59994305460802    7.78459133792653
N         0.96346385509360   -1.76311485402634    7.60147259913183
N         1.35891729511320   -1.07976755071164    9.64665489121665
C         3.21407413195257    2.79476706219703    6.42035560814111
C         1.14096565781703    3.06318196282916    5.83172888390008
C        -0.13808112112373    3.43766214693823    5.28215039875261
C        -0.34445135785751    4.57137658415197    4.49795319758762
H         0.47129664470646    5.24849107417557    4.28108035557952
C        -1.59877707780654    4.82108471595829    3.97842643421336
H        -1.76690542041875    5.69751916485184    3.36862624952362
C        -2.63618340139177    3.93866966852829    4.24299729709850
H        -3.61958583537104    4.13754151773459    3.83834744643553
C        -2.42188384755246    2.80620433946886    5.01002936438608
H        -3.25030938308876    2.13583086614856    5.19427039857025
C        -1.17160161834992    2.50416681142922    5.55391161887739
C         4.64395484650930    3.02731315464548    6.58488462183757
C         5.09353550899847    4.24281347099145    7.09446991331313
H         4.37954837743626    4.99270808803248    7.39844995330419
C         6.44445686816707    4.49868183173149    7.23153581311218
H         6.77425427507201    5.44730212479726    7.62801927077868
C         7.36447898208089    3.53498710914585    6.85961663374641
H         8.42282957256292    3.72539140526242    6.96000821751836
C         6.92312826097296    2.32213545774933    6.36097349409880
H         7.64506937852070    1.57134616339318    6.07193541062237
C         5.57176345059546    2.04282123576289    6.21534295016588
C         5.14060443144122    0.73569330856409    5.62905903989576
H         5.92642211499641   -0.00886137262138    5.73344926726134
H         4.93277469099210    0.86464280362270    4.56637072377490
H         4.23108056871546    0.38120916902200    6.10323830369907
C         2.63304802921271    5.04103183663861    5.52351759038250
C         3.47909192463555    5.26817384460026    4.43354056902763
C         3.85763749262473    6.56853685190476    4.13823692186918
H         4.52326673337126    6.74667838210044    3.30686230456431
C         3.39806781880347    7.63387983427839    4.90453869339398
C         2.54461059883616    7.37888019242517    5.97358877655427
H         2.17493740159441    8.21145822223228    6.55221813026942
C         2.14876966626310    6.09238376297629    6.30831781423517
C         3.96500865098114    4.13578988583309    3.62287361650246
C         3.07553769382666    3.21142955334782    3.08084396464034
H         2.01169453106195    3.33159415389166    3.22526423878743
C         3.54322530497163    2.14413293734113    2.33631619751682
H         2.84215161721489    1.43178780136375    1.92688436955081
C         4.90329609175401    1.98867386589688    2.12370274039423
H         5.26759121931454    1.15109160288874    1.54681323422779
C         5.79365895571372    2.91003418771367    2.65130990105254
H         6.85507437235411    2.79303006737224    2.48817715259089
C         5.32863365777265    3.97855900105383    3.39528341765328
H         6.02315635485550    4.68652526054343    3.82437761378821
C         3.81091648018418    9.01084512212452    4.59450772260164
C         4.15799830832215    9.89264173947644    5.61522240848447
H         4.14077776825375    9.55340877761083    6.64092425196923
C         4.54978534189303   11.18597338610184    5.32460372072143
H         4.82218525334828   11.85758436684701    6.12582330155418
C         4.59546603239430   11.62085836552022    4.01064432107419
H         4.89875486904446   12.63230400004856    3.78444826200727
C         4.25085538593438   10.75267846806696    2.98824758704753
H         4.28160702638042   11.08788054119588    1.96172338221341
C         3.86487086713583    9.45693048561219    3.27638690182876
H         3.58158255561679    8.78844122257394    2.47637578486130
C         1.24404820885522    5.85344651492086    7.49659056707588
H         1.01409467686389    4.78677330732124    7.57613721134920
C         1.93296299222461    6.27492443517331    8.79766335742848
H         2.85838400425628    5.72124569592278    8.94609219378543
H         1.27832506022812    6.06503761086771    9.64015599045698
H         2.16272243416880    7.33805609711119    8.79339739621391
C        -0.08503658264481    6.59274835697557    7.33163226204619
H        -0.58259123798475    6.27970588014833    6.41691109641688
H         0.06333316725201    7.66946401486484    7.29914000335805
H        -0.73623852862196    6.35874742592143    8.16984367086713
C         0.00393414359889   -1.29616151524304    3.03853821793944
C        -1.45055413921880   -1.00138553646739    4.62628334964787
C        -2.50420796481868   -1.03461183183307    5.60967238790806
C        -3.56728920107726   -1.93572798160136    5.59080244824417
H        -3.64719073512718   -2.67777353778466    4.80786310941049
C        -4.51233247255545   -1.89686572731940    6.59653792768734
H        -5.33856015347449   -2.59376270179056    6.58894738736218
C        -4.39100867935041   -0.96100590509415    7.61320923752440
H        -5.13959584056255   -0.92346165033650    8.39372330069802
C        -3.31542188495696   -0.08964775101840    7.64511874923774
H        -3.23955614554052    0.61732059505028    8.45971556407227
C        -2.32578239408026   -0.09664468370933    6.66067046113299
C         0.69203136741902   -1.83619564734786    1.87570406999496
C        -0.01276764190404   -2.13472619344447    0.71250393327947
H        -1.07066090086151   -1.93005504344067    0.65759964996807
C         0.62603479489337   -2.68170074911586   -0.38381781043138
H         0.06211239544829   -2.90911267014682   -1.27630840828717
C         1.98477562599780   -2.93447117252438   -0.32907096863741
H         2.49256328394987   -3.36661854861419   -1.17884904846856
C         2.69294502992376   -2.62879484019482    0.81995586689777
H         3.75483680351703   -2.82758720425742    0.85714246572605
C         2.07373742442109   -2.07849674059848    1.93232131639019
C         2.86670693819484   -1.78476439239661    3.16454672306265
H         3.89730969825572   -2.11015399115427    3.04403160874337
H         2.43140730452427   -2.29777250034410    4.02029482039785
H         2.84881365078779   -0.72027882626427    3.38627520060317
C        -2.10197378098795   -2.61708243314350    2.83911233470372
C        -1.70892684340137   -3.95953066329732    2.82750641238299
C        -2.49063214711136   -4.88241329402540    2.15147698142482
H        -2.17960466195330   -5.91617003427597    2.12568490455340
C        -3.65673151819578   -4.48753920386555    1.50467197051432
C        -4.02779310256426   -3.14695300880158    1.53925307555764
H        -4.94185240531095   -2.84897586962092    1.04877080446942
C        -3.26564042448250   -2.18982927216849    2.19291164267816
C        -0.46748349192721   -4.36835958119270    3.51226480332644
C        -0.26751558231235   -4.07774070731938    4.85903923566653
H        -1.03901600647989   -3.58059605335270    5.42890773041513
C         0.91267886431333   -4.43546777443856    5.48396086702588
H         1.05639782052708   -4.19017620012597    6.52480013264118
C         1.90554456786051   -5.08591565141857    4.77035639365446
H         2.82936163191714   -5.35740896580695    5.25980178638416
C         1.70922627029634   -5.38878690764778    3.43304438787503
H         2.48016263689265   -5.89687080654272    2.87206922251603
C         0.52818517061829   -5.03582798425756    2.80648789893385
H         0.38069252018855   -5.25356913134862    1.75820641955647
C        -4.48398462873542   -5.47028940433811    0.78879385069234
C        -4.73559166625156   -6.72312328376944    1.34256857307060
H        -4.33243289038187   -6.96532430849442    2.31516189158622
C        -5.51659990672398   -7.64459123888029    0.67039514419393
H        -5.70954547173538   -8.61032550589086    1.11456245999851
C        -6.05269247909938   -7.33247893421535   -0.56775651069443
H        -6.66107015004434   -8.05372558327231   -1.09306146032089
C        -5.80477135756389   -6.09125754543478   -1.12953995834123
H        -6.21662806174650   -5.84423474065682   -2.09733964627550
C        -5.02938598287046   -5.16604474672797   -0.45606635733283
H        -4.82510632947814   -4.20557347341965   -0.90691725742742
C        -3.67495309879058   -0.73411054755459    2.16820374768169
H        -2.96236990946080   -0.14770945307950    2.75643556474948
C        -3.65163708214809   -0.19800533794254    0.73341457657547
H        -3.91996200735122    0.85583808548526    0.73027395789737
H        -4.35865826208375   -0.73475626253463    0.10503264044767
H        -2.65923302979675   -0.29524479740042    0.29712591062202
C        -5.05866507288756   -0.53340745706939    2.78932842686213
H        -5.06859712938607   -0.88245761566066    3.81894477518701
H        -5.82211601890579   -1.06935607281947    2.23054910529458
H        -5.30977795372159    0.52467055569193    2.78652340340563
C         1.59088517468001   -2.05728360694197    8.70771205981518
C         0.58483202330936   -0.15801611011904    9.00461053646026
C         0.06200340984990    1.12192855345503    9.42117301550666
C         0.23630288682464    1.66771346705574   10.69257244157344
H         0.78767950124777    1.13434787429542   11.45413451360392
C        -0.30056444551348    2.90571536501078   10.98383263454084
H        -0.16453469308975    3.33449599318049   11.96662639066326
C        -1.01535783149079    3.58797936989487   10.01067355558357
H        -1.44433458191231    4.55386584464252   10.24371744264018
C        -1.18385236248405    3.04339683709291    8.74892460296485
H        -1.74722939584549    3.59841781596826    8.01145119265437
C        -0.65303833236872    1.79942926221206    8.39998630444768
C         2.45546253008908   -3.21674462240238    8.91605702980195
C         2.21999647433405   -4.07083044306044    9.98725425704601
H         1.37784218435843   -3.88882688688467   10.63575731487101
C         3.03272410378983   -5.16725157878952   10.20706189721364
H         2.83695716082603   -5.82318964311613   11.04200814666948
C         4.08899847898198   -5.41969810125470    9.35034968947828
H         4.73009276200633   -6.27345979415996    9.51384250669732
C         4.31909407626339   -4.57787400775888    8.27638965872547
H         5.14397415953113   -4.78082491284514    7.60760520145829
C         3.51575345415998   -3.47207583697681    8.03604783704206
C         3.81298234650326   -2.55973751507806    6.88791435480933
H         4.32646267128444   -1.66950173935133    7.25004779911954
H         2.89645688345906   -2.24159557025478    6.39960546983681
H         4.45481790220727   -3.05139545606492    6.16115916892441
C         1.92166487583700   -0.98199545273418   10.93903334433511
C         1.24091702539354   -1.52278657939734   12.03775396411696
C         1.82533099471877   -1.42315683258447   13.29297237488056
H         1.30832587337676   -1.83865013064488   14.14513384050493
C         3.05547845268686   -0.80139506825708   13.46912028767948
C         3.70501656881234   -0.27110101217521   12.36024144521591
H         4.64734484537476    0.23544411833894   12.50160743077785
C         3.15766086102546   -0.34723965433396   11.08851383705730
C        -0.05527629636730   -2.21754582556561   11.90028749939470
C        -1.12427701560608   -1.67138537436272   11.19559610116804
H        -1.05281519970791   -0.68325446584163   10.77092755874265
C        -2.30712357298197   -2.37568393430144   11.05720536179587
H        -3.11676702297467   -1.94013034928430   10.49117862071716
C        -2.44741437124074   -3.62649278923503   11.63240428990292
H        -3.36895584091651   -4.17754192390874   11.51776721230615
C        -1.40180650290433   -4.16583238378020   12.36386254069102
H        -1.50694449995453   -5.13652328974384   12.82647566516827
C        -0.21657035611268   -3.46785953280067   12.49817699725782
H         0.60349903566996   -3.90013931391781   13.05533458667038
C         3.65714325371941   -0.70260930124536   14.80733028535079
C         2.87677249300405   -0.37961769082356   15.91467802305672
H         1.82307455793297   -0.18022697006933   15.78361267345738
C         3.44472641401373   -0.28653230875317   17.17155425405667
H         2.82910462066467   -0.02891707436627   18.02108976811592
C         4.79879516307106   -0.52071362719206   17.34320213890274
H         5.24115772301656   -0.45035636069405   18.32585586648773
C         5.58308575746924   -0.84562761490717   16.24905960144524
H         6.63919420617337   -1.03338323482173   16.37814131175896
C         5.01841751318358   -0.93299432393967   14.99032169843952
H         5.63080695207470   -1.20376742102593   14.14228309348426
C         3.87082015585951    0.28079605455050    9.91327554487347
H         3.31978007568298    0.07428836113744    8.99165984941209
C         3.91662725544260    1.80215878444414   10.07624516428860
H         2.90775530816436    2.20705716153052   10.12748891838026
H         4.42201248929072    2.24657996739135    9.22188140292741
H         4.45002247341388    2.08360420473041   10.98151326942824
C         5.27987594412221   -0.29335294243898    9.75409048902864
H         5.24423929730558   -1.37920142137458    9.67879631731930
H         5.90909852883138   -0.02881669825213   10.60043716170391
H         5.73899669190854    0.10802860063835    8.85305674759695

