53
CSD_code = PUMBAA | q = 0 | S = 0 | Stoichiometry = C21H27NO3W | MND = 9
W         0.71236558266364    5.99013720090493    5.78464551551133
C         2.97682151848898    6.41322038121358    6.11205267740574
C         2.83690572025210    5.23378768198214    5.31195234286190
C         2.22278858771798    5.59410089592663    4.06876771078039
C         1.97584709504076    7.01677899459013    4.11754498360542
C         2.45189602934972    7.50706509534299    5.37830907137267
C         3.66613509043617    6.45229537582775    7.44523543221697
C         3.39703953816061    3.88637425950705    5.67224425113371
C         2.22216738838038    4.74484530081663    2.82484847647724
C         1.65297926194733    7.89389540337802    2.93930041355451
C         2.48321828247519    8.95732607044977    5.77485239051862
C        -2.10629144451085    8.51524945195176    7.79232133825387
O        -0.14817600144642    7.35706615901685    6.98506282997639
C        -1.41048791364486    7.70130213108754    6.73474972170334
C        -1.93334253050747    7.35142987030150    5.54133325057048
C        -1.05771545013317    6.51076318129919    4.69577225682982
C        -1.27481449805917    6.51225807963327    3.24295895254442
C        -1.06058191794216    5.36116685110029    2.47764222839132
C        -1.23606453472729    5.38389570222881    1.10713653665235
C        -1.62819185225966    6.54901180403455    0.46763117195709
C        -1.85768989306569    7.69286792124685    1.21575480547865
C        -1.68583168433071    7.67658722073031    2.58574107401857
O         0.87195955998087    4.82838569810758    7.30513540154881
C        -0.15416357519198    4.55706036936125    8.19481235665549
N        -0.88994701706825    5.20151843252877    5.32953966147192
O        -1.67126605559372    4.22514639376949    5.23649440087851
H         4.73643041801687    6.27577736396039    7.32251419552817
H         3.26642822311690    5.67743942121672    8.10059855122667
H         3.53090587954736    7.41688821756885    7.92931415993387
H         4.48472677205046    3.89225511135681    5.57608955966080
H         2.99768378283248    3.11220584263967    5.01954458370079
H         3.14622720272277    3.63216291299871    6.70270682336769
H         3.22226711188647    4.73709642195948    2.38560425343372
H         1.52808232868273    5.13633745384352    2.08512657297302
H         1.94029644088424    3.71649266640872    3.04583345545935
H         2.57886145139273    8.28517204313143    2.51244247345927
H         1.03061478640442    8.73830607006682    3.23124509442311
H         1.12753102214752    7.34168963647962    2.16463788784863
H         3.38076861919404    9.43759220788490    5.37939352642652
H         2.48373826823533    9.06778396256816    6.85791786690460
H         1.61371465762762    9.48309246161631    5.38024365015466
H        -2.30952828097272    7.89391018541511    8.66416907587789
H        -3.04403169418416    8.90878989989668    7.41359534701107
H        -1.46483625393610    9.33679132149454    8.10742555841301
H        -2.92438518514328    7.62828607945058    5.22041329491429
H        -0.78773442664194    4.43686475469985    2.96917965750365
H        -1.07247287191849    4.48321502508064    0.53211432107754
H        -1.76350675320953    6.56298955729106   -0.60379734470833
H        -2.17334342424519    8.60285094434168    0.72536117100763
H        -1.86247540503994    8.57178146274189    3.16496891042632
H         0.18515890680755    3.85046495941247    8.96600550761163
H        -1.02163727132953    4.12580949029664    7.67336486284275
H        -0.46174359135390    5.49821859984029    8.68494773115453

