59
CSD_code = PUMCIJ | q = 0 | S = 0 | Stoichiometry = C12H35B8IrOP2 | MND = 7
Ir        5.32388868327315    8.45462283999562    3.77469429214838
P         6.34442113221578   11.38892398513799    3.50639220461444
P         7.21890477359469    8.37017713796783    5.27317842565404
O         3.71972575583466    9.80474911543594    5.90869156504938
B         3.78803378461866    8.27600866917907    2.08925441738993
B         5.49216504939222    8.28874389180309    1.54549136785688
B         4.32090771250334    7.19767593954742    0.77454668511565
B         2.93571260813150    6.71299570055148    1.75814100888292
B         5.93268084957135    6.35729876360832    1.14584707443091
B         4.26521515264641    5.55665791628275    1.29273828393506
B         3.38045535503003    5.53993311940206    2.95772184136709
B         3.26858651409913    7.30376632146761    3.40479291780513
C         4.31120612479704    9.23896355784175    5.08305787519744
C         6.66037245472790    7.56269693413597    2.28678241740751
C         6.68811009870468    6.10431981883665    2.58584054999819
C         7.97260697868143    5.37269411708997    2.62440435977927
C         8.10698837903166    4.29127067129545    3.39273282020090
C         9.11790707344841    5.83659054892264    1.77121064586680
C         7.47680026889068   11.91288725983499    2.13314642230394
C         6.67118751465030   12.80811588925646    4.66227723897432
C         4.76066943230244   12.00451212447784    2.79223150705198
C         7.11711078574979    9.41657587530043    6.78454643358278
C         8.87539230227134    8.89215457631938    4.66739982531777
C         7.66893060901297    6.76132501981234    6.04770774107140
H         3.21174079447546    9.27562913191440    1.82478123907074
H         5.86206760228392    9.24919619243830    0.95134301661811
H         4.18825300362168    7.43655207890902   -0.37515859077495
H         1.85924238935252    6.73155920392374    1.28064281541024
H         6.59778941822583    6.15424901829337    0.19133057387148
H         4.08169540849623    4.66942390692241    0.53671165659673
H         2.66333420389079    4.70456159374539    3.37755346516651
H         4.41428816480149    4.96241227631305    2.47728250417082
H         3.90789999956591    6.21265236392183    3.92160913212006
H         2.40318743868332    7.57382997346080    4.15595838928705
H         7.64641710293895    7.96264772821394    2.05114202470001
H         6.07622850917136    5.76586239329914    3.41898175704790
H         9.01773498473239    3.71716360188023    3.41762807787086
H         7.30541789468149    3.92306177665447    4.01364628309918
H         8.77934156046132    6.06871550407076    0.76408951527177
H         9.88553111161251    5.06843389922747    1.71395690848511
H         9.57704298966239    6.73556454719874    2.18683593307646
H         8.51336146702973   11.83789336337892    2.45683852842523
H         7.27508521663292   12.93546850448276    1.81898512801411
H         7.33048667553017   11.24477510335311    1.28831686921320
H         7.66908240260235   12.71851061951060    5.08757001620755
H         5.94511483835424   12.77055760587162    5.47126331514676
H         6.58686999678912   13.76587489907292    4.15200789173054
H         3.97799725611616   11.90256925707997    3.53950188753397
H         4.49746314367427   11.38329695674984    1.94135004576003
H         4.83975048198146   13.04542306508046    2.48129729979895
H         6.25492511010208    9.11251559573584    7.37318305537687
H         6.97651252304731   10.45197797147187    6.48535308655793
H         8.01870257155198    9.32914630001725    7.38938800466982
H         9.23472912147681    8.17939182575786    3.93021574644512
H         9.59137319272875    8.94493954222014    5.48612507152527
H         8.78566289396053    9.86950504293577    4.19883436646971
H         6.80571858113337    6.36906401128328    6.58135022362410
H         8.49504905113493    6.88464058891936    6.74669523205280
H         7.95892350632707    6.04957476319614    5.27706160935057

