50
CSD_code = PUMDEH | q = 1 | S = 0 | Stoichiometry = C23H21N2O2PRe(1+) | MND = 8
C         5.71172111944637   19.83077383799202    3.43380805060978
C         4.67468015899480   23.17544161632209    1.54227171855423
C         5.93997012842067   23.20247717762970    0.92938545451253
C         6.91957128686587   22.94968771255448    1.92982165859078
C         6.24650489872917   22.82661028094131    3.17839639874278
C         4.85621675266260   22.90756766846459    2.93464321744824
C         3.50064865413033   18.36388229741761    0.60169186003233
H         2.49270014536697   17.96917917705108    0.47124802749513
H         4.07089135429485   17.73930033071791    1.28851929584334
H         4.01191913055507   18.38874616087648   -0.35991740377089
C         2.28392674251575   20.04969351168940    2.65048032064983
C         2.09218693699811   18.88942322478861    3.39631832353081
H         2.57934163931064   17.97101085843297    3.10790712719072
C         1.27084005489828   18.91431563991775    4.50938513528386
H         1.11869504239038   18.01229923334075    5.08147820987529
C         0.64774395066054   20.09136755413833    4.89225580805328
H         0.00845030274605   20.10588438104060    5.76107351093330
C         0.84900359296690   21.25304841716978    4.16258707344761
H         0.36719459781510   22.17114203156633    4.46289245797435
C         1.66964554204536   21.23671968284171    3.05068601861031
H         1.82920422979849   22.14259021631156    2.48146357288244
C         2.56333626733548   20.95605805298479   -0.09533071875643
C         1.20925322557418   21.18822262996348   -0.14769381286230
H         0.56843581015682   20.88123966924474    0.66616325859507
C         0.65118013725771   21.82058029232340   -1.26768756084482
H        -0.41236291215073   22.00004012840286   -1.29102001246824
C         1.43757042576869   22.19981788090114   -2.32378301703990
H         1.00441442285901   22.68061207832177   -3.18789636186001
C         2.82516833442672   21.95781943750515   -2.30698580074221
C         3.70302876762543   22.28302305280413   -3.36419567532943
H         3.31559377114061   22.76187480477467   -4.25101823224749
C         5.02878486486423   21.97802426511991   -3.24261345708617
H         5.72280122006115   22.20325918451419   -4.03695020788065
C         5.51262981185690   21.36792423358455   -2.06151400674219
C         3.39775883943763   21.33342357860932   -1.17230299363156
C         6.96415412687641   21.04722615336051   -1.93952051964357
H         7.32817382897660   21.25945936458223   -0.93551413903995
H         7.54870830734457   21.61040241624896   -2.66128135902824
H         7.12035715354830   19.98465207870379   -2.12679253177355
N         6.43744973767513   19.71465779799516    0.90060315058189
N         4.71502062254125   21.06669347190804   -1.05878634118982
O         5.76196678639486   19.23315890270087    4.39945485697591
O         6.95215759199731   18.86076534189414    0.30933271334370
P         3.40719126818309   20.07012852560681    1.23268159917262
Re        5.60982371146403   20.94864457561651    1.84116554283768
H         7.98744052942223   23.02981050621767    1.80029082595845
H         6.14055533813274   23.47944257661711   -0.09227216798427
H         4.09431748906241   23.00326293200915    3.69398587478285
H         6.72037973718687   22.75518212015847    4.14434591964531
H         3.74115452338502   23.43733293611214    1.06723933777189

