72
CSD_code = PUMFAE | q = 0 | S = 0 | Stoichiometry = C20H43ClFeO4P2Si | MND = 6
Fe        3.07850327728233   10.97230427208358    9.85258476168400
Cl        1.58341865902248   11.32267705455739   11.38927305981090
P         2.55474799840505   12.90718663483831    8.98345122292289
P         3.53774823307036    9.06763999147683   10.81940414358245
Si        6.66985307181635   10.63078608268459    7.23184396944478
C         4.33998449441416   11.72498201506238   10.75451612260274
O         5.16472314882053   12.23354413355406   11.37533985176277
C         4.15117265945914   10.53558784298759    8.37209663156027
C         3.52510574508740    9.88192274782007    7.33923909103622
C         2.16341668041443    9.66376473418292    7.60556099677475
O         1.66981179905750   10.05542593297103    8.68627627880673
O         1.40644837840275    9.03548859395016    6.69330895734507
C         0.04278759378162    8.85616308887984    7.04395940971865
O         5.44763912267856   10.83695477664107    8.31678842272239
C         8.13397951395959   11.43069327328452    8.13828398175065
C         6.32322045597400   11.53721645873913    5.58707737918804
C         7.02208482012054    8.78474678557538    6.89218675679117
C         3.74175893409352   13.68777570403187    7.79835160494590
C         5.06311332516484   14.07214422375004    8.44781838888276
C         1.03774909282734   12.96054778984905    7.92666790574517
C        -0.22262830885226   12.59318699515097    8.69837779827775
C         2.25822315880911   14.24054679510864   10.22526530257630
C         1.89546124599994   15.61976696112791    9.68953256089186
C         5.14024691923031    8.23759155059193   10.41205637109927
C         6.35560947945490    9.02956194296384   10.87167862686739
C         2.39925924458029    7.65605481309777   10.45588775250574
C         0.97342897960055    7.92459910187707   10.91845082792346
C         3.55497023369321    9.13954325614613   12.66388552101005
C         3.87632105770826    7.84837938155540   13.40582577548455
H         3.99195585547257    9.56103197226015    6.42236722426154
H        -0.42010873362305    8.34944930920914    6.20069616799018
H        -0.43808781452606    9.82039594352362    7.22157277374681
H        -0.04449500471439    8.25036842620270    7.94841666322581
H         8.35439844586680   10.92501213463073    9.07281374823072
H         7.94371308480044   12.47362760658392    8.37005170258578
H         9.02683257865867   11.38838325103592    7.52396531601573
H         6.18360902556963   12.60251462381939    5.74818068807055
H         5.43098594133323   11.16350280627981    5.09242932732534
H         7.15138458809214   11.41997928611669    4.89538098079200
H         7.27416817304886    8.25831577533060    7.80854484359894
H         7.85850230625452    8.66704682269583    6.21054081911694
H         6.16875728906387    8.27788703485256    6.45023314852517
H         3.91697811967670   12.95513525124103    7.00538626890229
H         3.26505112078491   14.56358381374230    7.34712032814650
H         5.74683426179734   14.48091998540008    7.70484652595951
H         5.52513404123056   13.19848628697687    8.89690428315649
H         4.91572041388281   14.82128720772307    9.22224570065438
H         0.95099958394007   13.95891896987967    7.48593807357429
H         1.20681839381959   12.25020049346072    7.10997999980177
H        -1.07535904811405   12.51483690806327    8.02441154718885
H        -0.44841226349677   13.34330751580277    9.45214286428639
H        -0.08466151295439   11.64327101714734    9.20850620344568
H         1.46928809871906   13.86362483391453   10.88154461579692
H         3.16786115399506   14.29229542591953   10.83164784962910
H         1.75009754938352   16.30241986613633   10.52503143022371
H         0.97081925423567   15.59232140599293    9.11843116549889
H         2.68239746373478   16.02694586927587    9.05874600747722
H         5.14158148922702    7.23775304237437   10.85733362768828
H         5.16269912939577    8.12072990346864    9.32482649371567
H         7.27310183863464    8.52503828941631   10.57113017253554
H         6.36638425528925    9.13783305416980   11.95372761812994
H         6.34554206395850   10.01946625898618   10.42636453904438
H         2.42810859927873    7.50957539347047    9.37058913880972
H         2.79978428765522    6.75108690851025   10.92399843042328
H         0.30553307365339    7.13271412538068   10.58034871744578
H         0.62541539654893    8.87550167688648   10.52311427431467
H         0.92103902269115    7.97819153321697   12.00297668536582
H         4.27446985767009    9.92138810608424   12.92631693081473
H         2.57003096079186    9.51483966322234   12.95424054389860
H         3.84902569469825    8.03438680134091   14.47813831620273
H         4.86749205633784    7.47635894078665   13.15662349488409
H         3.14765089415979    7.07248352492727   13.18470527578178

