63
CSD_code = PUMFIM | q = 0 | S = 0 | Stoichiometry = C19H36FeO5P2 | MND = 6
Fe        2.67947338849765    7.43789920900429    3.50996922525575
C         2.74854300629661    8.84572651699787    4.59665782585701
O         2.87229337241423    9.75764735300491    5.28280259155205
C         4.38840960158864    7.60321621686524    3.25797243658030
O         5.51957500105814    7.78957027683622    3.15251459874525
C         2.33345135781624    5.78660078567328    2.29406714018606
O         3.20569507003129    5.22056413844006    1.65624080322509
C         0.96563386714446    5.45473542806619    2.34137503460249
C         0.18336928067625    6.25859222765704    3.14516143970820
O         0.67885051071825    7.23322701349814    3.79631247216418
O        -1.13692574978703    6.00056175939109    3.23878062850692
C        -1.89828712919738    6.85830719261932    4.08042221009748
C        -3.34378076301102    6.39642188131142    4.03944303316148
P         2.32793242045272    8.39891007413036    1.54989745405971
C         2.87882587744197    7.70782595209318   -0.06963180974038
C         4.37491020644469    7.43042204657559   -0.11949672295148
C         0.58176766733875    8.82143012817850    1.10963847983513
C        -0.05042991890576    9.79147377483702    2.10037410798403
C         3.14338743299039   10.06817720955219    1.54809924152947
C         3.01871704097876   10.92222114910067    0.29222716960257
P         3.07654707070217    5.77207442796091    4.90863771349749
C         3.87463435606468    4.17622308695973    4.43912975407953
C         5.23661165413089    4.36252117772831    3.78493418804218
C         1.64267285660517    5.11023493674368    5.87164547121875
C         0.99155558112873    6.17108464588402    6.75061039364815
C         4.20275622229293    6.37814337233204    6.25608015808381
C         4.60402520781867    5.39373754049702    7.34786756075081
H         0.55613201634559    4.62721920784600    1.78576924241352
H        -1.80622324676842    7.89163612667559    3.72564529694039
H        -1.50059217100365    6.81310801854218    5.10117418390144
H        -3.95174082563040    7.03509340680796    4.67405314120496
H        -3.72072252941210    6.44107769319007    3.02122779858057
H        -3.41751998057635    5.37028440758587    4.38937111979085
H         2.58435644606464    8.41776063447620   -0.85015870721914
H         2.32870200929634    6.77640701081604   -0.22843461138636
H         4.65725056972853    7.08497264544564   -1.11248635100617
H         4.95491633463283    8.32110698123381    0.11303455568444
H         4.62346192084849    6.65055890058259    0.59492321022844
H         0.02796414257985    7.87727063903068    1.09692463159066
H         0.56497364760216    9.23082655233971    0.09425750395422
H        -1.12038778933990    9.87908566546575    1.91509124010977
H         0.10309531897261    9.43355000874567    3.11699720380117
H         0.38882141895420   10.78279624721708    2.01549216510558
H         4.19888335316524    9.88983025260824    1.77624933620023
H         2.72505683699998   10.59720085062757    2.41023186550001
H         3.47317559849613   11.89583461985895    0.46982437182155
H         3.53181699190546   10.46478707937577   -0.54972149662624
H         1.97819870255541   11.08334869638048    0.02078560894846
H         3.20077013780609    3.66971654466252    3.74290051310838
H         3.95386308573496    3.56591020208917    5.34532281004413
H         5.68916937008925    3.39322199546546    3.58314374720179
H         5.11695740342488    4.88500849668769    2.83990546442866
H         5.91125721633860    4.93182205999389    4.42092451144533
H         1.98481211936551    4.26010436083499    6.47086337052863
H         0.92401734341327    4.73222794675457    5.13753567530988
H         0.05624449236531    5.79755754369819    7.16590122630014
H         1.64058443877399    6.44928488639364    7.57779306669388
H         0.78444084797356    7.06274931134211    6.16139398324657
H         3.69435855984515    7.24340333103732    6.69302994193329
H         5.09533235358877    6.76423474720949    5.75401304858151
H         5.19532416002262    5.91073552185353    8.10222137833335
H         3.73344545605473    4.96690606868507    7.83997230472775
H         5.20988976003740    4.58491181649260    6.94779504928695

