58
CSD_code = PUMFUZ | q = 0 | S = 0 | Stoichiometry = C22H26N4O5Pt | MND = 4
Pt        1.90760260011420   -3.43424857927350    6.92508577735880
O         1.36914248071349   -4.13743188232459    8.77125942372526
O         2.27336011330303   -5.38311361677641    6.44774896284575
O         0.73894648613285    0.38361420027304    7.53622289583409
O        -0.59515618004691   -3.37973635607932    8.08945136067921
O         4.31477107839871   -4.62320514215652    6.77122403685260
N         1.50683666050781   -1.65490935756144    7.48272110421889
N         1.49958392644163   -1.27210330408607    8.75949621136292
N         2.41226921699423   -2.55434757655432    4.99450501806741
N         1.93704551436027   -0.69977624355660   11.51190781584697
C         1.04276083137764   -0.05114275981706    8.79137699302705
C         1.05025343528968   -0.66475438452435    6.74649146492102
C         0.79907063850205   -0.70000705557969    5.33210419596068
C        -0.10735890117671    0.22441868058293    4.80809799343673
H        -0.50806241174770    0.97930514529345    5.46637270536469
C        -0.50908661238105    0.15464394432655    3.49142078523547
H        -1.21391716103476    0.87030744069585    3.09881698364497
C        -0.01737879569838   -0.86224412687187    2.69215338910096
H        -0.34336267192961   -0.95353845912859    1.66748682762220
C         0.90928291362835   -1.76470889892879    3.18971054147441
H         1.27021831012851   -2.52684894408108    2.52099843222663
C         1.36243578996900   -1.69788732433554    4.50272497610881
C         2.75875868739623   -3.64704609899073    4.08021474529811
H         1.89195546834866   -4.28524381859549    3.91317330196306
H         3.54449921395322   -4.24013941127832    4.54390345140315
H         3.14391080883921   -3.26684886643709    3.12737073261293
C         3.64281764006378   -1.77722372890595    5.24183219651981
H         4.06841275368842   -1.43787777804816    4.29030472585390
H         4.36088194494963   -2.41956118745204    5.75413559700440
H         3.44296296918856   -0.90392661762105    5.85982841794280
C         0.74028275961887    0.74123272647577    9.94608578895602
C        -0.05383136087286    1.88089252270135    9.75611971142705
H        -0.25639866331038    2.20143503175899    8.74541978910087
C        -0.60051712598136    2.55620611191857   10.81963207479736
H        -1.21080484467201    3.43059399588636   10.65849199872209
C        -0.38201445169936    2.07546020557023   12.10797593097533
H        -0.83065065976099    2.57886023887146   12.95162863900682
C         0.42354573630003    0.98301331032128   12.32216429521836
H         0.60848812695587    0.66197693433606   13.33469666438884
C         1.06193911479916    0.31098253883446   11.26190867271949
C         1.85753110285774   -1.47016621287173   12.72756649330267
H         2.23162862318124   -2.47228602878931   12.51588092753246
H         0.82369704275300   -1.55384853265229   13.05640243504290
H         2.45951446039565   -1.03994311937892   13.53780049571477
C         3.18120256775406   -0.86271664540785   10.80103734574193
H         3.33837041117192   -0.02958078383454   10.12063443289200
H         3.19727540906430   -1.79463451479554   10.23211144270894
H         3.99949355366500   -0.87263742221975   11.52749220095796
C         0.12394993508294   -3.90215885579118    8.93477917867324
C        -0.41678844335668   -4.28605672129205   10.30465557281400
H        -0.28633587171266   -3.43343165444130   10.96784137496456
H         0.13709598564269   -5.13167187021447   10.69948744163276
H        -1.47418346225607   -4.51919839942036   10.22983815588063
C         3.51745835265140   -5.56107005395324    6.65040040755674
C         3.99551531353731   -7.00149887718051    6.67563988349259
H         3.38391594382092   -7.60792829415084    6.01372617650141
H         3.88642966707061   -7.37710551372893    7.69061941141280
H         5.04273402902416   -7.05203800870218    6.39162199442337

