46
CSD_code = PUMJIQ | q = 0 | S = 0 | Stoichiometry = C22H14N2O7W | MND = 6
W        10.39782618091479   21.80647333830646    1.66258998469199
C        11.13523706787283   20.64639596880082    0.20864140821916
C         9.09587596425984   22.62893702956984    0.38045450074049
C         9.05794316297255   20.40120566586675    2.11511206271025
C         9.62783812600513   22.94326647440861    3.13122208519002
C        11.61911298030198   20.88921797341989    2.94739235156869
C        11.75195881332585   23.29568714204187    1.22575791538784
C        13.34879852363338   25.26877618120485    1.07753355025111
C        13.51740461432951   25.69107278140796    2.54452462153942
C        13.26618152009753   23.89699043742807    4.20070868603341
C        13.91029229463766   23.39592299954833    5.43538555026808
C        13.40420261242605   22.25015734435665    6.04370400735963
C        13.96501006516647   21.78004316434091    7.21547192016549
C        15.01514384687070   22.46450258120572    7.80519823226721
C        15.49344157912178   23.63045698759028    7.22881162023389
C        14.94617073182879   24.09827575763232    6.04960343679073
C        15.44926393390155   24.35303922409509    3.13755082599928
C        15.88130034423116   22.97482921869175    3.47215527061279
C        17.12122206223036   22.76456960935347    4.06695687181120
C        17.53996504422613   21.47929015661185    4.35328499489204
C        16.73859472105604   20.39851224561273    4.02175191151698
C        15.52358661368442   20.60196375900352    3.38817408025749
C        15.09188621037570   21.88556627613863    3.11180807533376
N        12.47950653021201   24.17734875097373    1.00405071812129
N        14.09756987547089   24.61995547824297    3.33829418862345
O        11.53453867357680   19.94760731124915   -0.60267457021695
O         8.31613528955304   23.04562110468733   -0.34164701750460
O         8.29295276487306   19.59168811281160    2.37120476776916
O         9.12878455313719   23.54778709638615    3.95520966057789
O        12.24317868031648   20.27059127865729    3.68057750283697
O        12.08192457245878   23.78049868589049    3.97168384255145
O        16.17769985355192   25.18011467588515    2.63727338908892
H        14.31846374940213   24.98558555298276    0.65456509100344
H        12.93394244934305   26.09720546928866    0.49563659078265
H        12.54476026792329   25.93582954512308    2.97515049677683
H        14.18714236968521   26.55405208914335    2.59284665534989
H        12.57925010731148   21.73372129036765    5.58036849080562
H        13.57954770088378   20.88122313208589    7.67192540391449
H        15.45340248502746   22.09787379211923    8.72130494991244
H        16.29436583761924   24.17855892968161    7.70175716404327
H        15.31255974869757   25.01785114820243    5.61658638729454
H        17.73690396970700   23.61653968345672    4.31242083359173
H        18.49413398022050   21.31884884729223    4.83210044157391
H        17.06666520732078   19.39481581222763    4.24654493720875
H        14.90796218393227   19.76047094927026    3.11027475856846
H        14.15075213666215   22.03905894703058    2.60055135356367

