114
CSD_code = PUMJUC | q = 0 | S = 0 | Stoichiometry = C59H48ClNO2P2Ru | MND = 6
Ru       10.77661395546429    9.00874755328780    6.49281647542558
Cl        8.66838784991835    7.80474570015575    6.24840063411704
N         6.90109960387397   11.00901764560262    6.69948703380491
O         9.47853882368383   10.60369720108059    6.78882518566180
O        12.74695057531883    6.83592913548145    5.93862901089090
P        10.92389131697109    9.68815576660425    4.29110037985009
P        10.40497629912956    8.48521158975654    8.72114873413631
C         9.69158079263745   11.84624056332323    6.88106942538424
C        10.99224630601662   12.40968821631182    7.13593399894001
C        11.13392271751547   13.77862485576655    7.11416314664409
C        10.05781927334487   14.66498169792914    6.90417160666003
C         8.80221931257991   14.15282002879120    6.76419471666712
C         8.56889465066914   12.75240316146445    6.77448948716797
C        10.32630318361021   16.13896921514399    6.87028394914768
C         7.26198184053766   12.28171745686072    6.69445735606366
C        12.15024901778388   11.55265591943696    7.40288577394137
C        12.27378448582187   10.25854602119209    7.06046243329509
C        11.95269837674266    7.64487552917911    6.16319727178843
C        13.27901750609059   12.16936364621814    8.14280830103866
C        13.05211989107503   12.76510405408293    9.38107096996236
C        14.10512137028180   13.24393719961273   10.13651096452604
C        15.40286278024861   13.14407516743377    9.66361812050196
C        15.63881888932761   12.55902017873031    8.43100551497563
C        14.58681562564586   12.07014226283714    7.67881505883921
C         5.61369354454385   10.48981274699202    6.68914800630104
C         5.47522529221614    9.11341295081721    6.49899979130081
C         4.21918895133608    8.54081251983703    6.48509582656632
C         3.08815285826363    9.32308362886131    6.66115933334307
C         3.22367620272620   10.68743434649777    6.85682211392097
C         4.47506471510073   11.27393408061989    6.87398628267461
C        10.57457826802271    8.47398338900107    2.97544811869078
C        10.35201824360413    7.13713681039213    3.27482430203941
C        10.08182046222239    6.23510572012883    2.25953535883527
C        10.03423054349540    6.66458683699087    0.94493470539325
C        10.25289732923446    8.00043746101951    0.64160765331045
C        10.51963449334547    8.90422086466440    1.65084505786552
C         9.69026928528730   10.94523823106015    3.80773300979346
C         8.36896471368815   10.51056055774594    3.91448077036399
C         7.32663410914008   11.36260184857715    3.60574836996386
C         7.59263066901754   12.65973719069508    3.19587646016791
C         8.90233297868086   13.09099278480910    3.07764312113285
C         9.95230551679959   12.23847091868388    3.37551022756811
C        12.54674316713208   10.33323831322861    3.77724567481194
C        13.40954583760763    9.54665797852177    3.01916095625140
C        14.67839632614641   10.00178171534952    2.70957805761529
C        15.10419052462079   11.24056928517720    3.15908674070956
C        14.26102226971797   12.01731721527176    3.93663422187172
C        12.99420274245083   11.56349496486861    4.25526488159734
C        10.14160955957064    6.76073224607825    9.24397125928960
C         9.86108542102655    6.49891826525317   10.58319877135261
C         9.68875653149489    5.19724371221368   11.01064371536560
C         9.80001032740287    4.14959051009236   10.10874113252916
C        10.08553870397834    4.40631965211577    8.77912858024242
C        10.25955638751406    5.70958206446888    8.34602917627584
C         8.91407209393922    9.32364250826568    9.33712485497563
C         8.96174458203291   10.69250618139038    9.59885032229591
C         7.80789073296938   11.37827629435584    9.92905922249466
C         6.59595311379462   10.70810568603748    9.98960331111304
C         6.53982419423565    9.35233017841608    9.71204682866495
C         7.69156530474967    8.66018604971296    9.38131920638436
C        11.72104171553769    8.93692715559477    9.90484694178063
C        12.99496814680088    8.49068002316595    9.56037308447269
C        14.08760206857309    8.81537812106995   10.33948369407891
C        13.91750040620869    9.58615202094418   11.47844907324894
C        12.64921626500170    9.99557051069948   11.84973413025706
C        11.55104815297192    9.66932946086295   11.07204953974996
H         7.67527535339088   10.33012138209484    6.69451663373522
H        12.11696446693368   14.20230806953098    7.27015975221771
H         7.95042775893945   14.80789737631828    6.64585169649492
H         9.40374296634151   16.69917972512691    6.74019608195638
H        10.80405548086773   16.46036314050234    7.79516833317718
H        10.99961707549767   16.38114939106977    6.04849268956976
H         6.47216645427179   13.02106092117580    6.63245276621934
H        13.25237065396378    9.83226038049579    7.29111060981721
H        12.04078509679768   12.84146671222159    9.75737603089676
H        13.91364764669269   13.69436574740731   11.10033093490025
H        16.22622803429292   13.51995903761345   10.25357605394450
H        16.64924055635515   12.48058220018552    8.05506067539644
H        14.77291393037870   11.60853354644373    6.71908981986360
H         6.35845866954041    8.50496723964471    6.36399389976907
H         4.12331094179388    7.47616980376736    6.33557272996615
H         2.10672310793242    8.87358742571612    6.65025418794339
H         2.34753434197166   11.30233307092998    7.00240175724445
H         4.55619236605005   12.33647076216075    7.04449902332621
H        10.37463938131659    6.80928126455557    4.30575613931612
H         9.90542521046084    5.19661083992876    2.49735094454866
H         9.82347109706464    5.96079030032408    0.15299764762814
H        10.21327097766809    8.33559722159507   -0.38481275506430
H        10.69173245996531    9.94776125871086    1.42108591972483
H         8.17050033856451    9.49818633637095    4.24781723781396
H         6.30573560698740   11.01644227710133    3.68720417088242
H         6.77952267369313   13.33154770958442    2.96198509205993
H         9.11244081340646   14.09815773975479    2.74775347232756
H        10.96842445186583   12.58307031776815    3.25526784559269
H        13.08698531217699    8.57417750504540    2.67445080172682
H        15.33881461893225    9.38475452933526    2.11786848633806
H        16.09454547810595   11.59521533215958    2.91381257852324
H        14.59394952846301   12.97749502864307    4.30457781974471
H        12.35571425863435   12.15898641333181    4.89130527255731
H         9.77846931768383    7.32039878379519   11.28258067330377
H         9.46849074287460    4.99616845461061   12.04916756588796
H         9.66325914407049    3.13260878780065   10.44611080860019
H        10.17168266667410    3.59116621212304    8.07608627720403
H        10.47075753713225    5.91610885383317    7.30522593788050
H         9.90559846327887   11.21816266248358    9.52568753599772
H         7.85343540858005   12.43971860338830   10.12892145654357
H         5.69338188324133   11.24527532576321   10.24253560537129
H         5.59268208035883    8.83397942180082    9.74140244757919
H         7.64413474945273    7.60819223553504    9.13833416239426
H        13.11252496627640    7.88555053916074    8.66864917943431
H        15.07337593849348    8.47666533603657   10.05666996608408
H        14.77181144600879    9.86043596161406   12.07924456599237
H        12.51080493691327   10.57694987434923   12.75005859129949
H        10.56574641248971    9.98810617391008   11.38223344010478

