53
CSD_code = PUMKEP | q = 0 | S = 0 | Stoichiometry = C22H29OY | MND = 16
Y         5.72250540323694    6.40303009859327    1.71012133315721
O         4.01828207511306    6.06988407928992   -0.23848319249940
C         8.07027409394312    8.21391786807089    0.67116319207618
C         7.02549647147901    8.51865846868277    1.56534190654104
H         7.16628073665802    8.92843884486972    2.56254155852582
C         5.80357740999566    8.62583887045586    0.78967323785327
H         4.92618103799984    9.18605140799744    1.10436974036684
C         6.16052983756021    8.38014209483621   -0.55730314804081
H         5.49719613163026    8.45547113346585   -1.40565445469128
C         7.52500128581353    8.10837914920307   -0.61476624037781
H         8.08249041952898    7.88036527196597   -1.50810479332101
C         9.52186493052994    8.09578125945159    1.02287926924262
H         9.97792890971325    7.23267321955708    0.53800001551996
H         9.65433981921185    8.00704579168797    2.10037534888593
H        10.06284920635637    8.98317980865072    0.68910533015431
C         3.56610462177962    5.65669007965812    3.06032229271777
C         3.37957231788825    7.05597762290879    3.04490140724332
H         2.50955208210092    7.57414000908887    2.66655400626974
C         4.43670304852297    7.65788562464782    3.75258390523301
H         4.51359126153452    8.70761939319077    3.99866854987803
C         5.30514581695880    6.63876966376522    4.20079800408622
H         6.11624044740274    6.76426697220781    4.90839656794809
C         4.76021871296987    5.39337370674824    3.77865976363262
H         5.07581711571238    4.41894014054229    4.12433747402395
C         2.60322521223515    4.60762200234214    2.57070681137644
H         1.63138311641777    5.05141011452462    2.35698751091875
H         2.46368725492574    3.84547910482065    3.33772351099226
H         2.96337542415167    4.10539085575286    1.66887582280425
C         7.46066174830180    3.86353900077147    2.70797920563747
C         6.46109148854493    3.11804544002171    2.05943922531043
H         5.97493995320628    2.24722966067128    2.46671259067121
C         6.21705085941278    3.66868557085318    0.80936630189855
H         5.57720257432811    3.24545075462600    0.04903438868561
C         7.05328116816858    4.81647793715557    0.64683341213454
H         7.40508640659616    5.18473082923424   -0.31554882091169
C         7.83579614824138    4.91321483971297    1.86405713395820
H         8.72144475760823    5.52537546130677    1.98622575870286
C         8.02940113110674    3.58149581182508    4.06434211079131
H         7.83252619752515    4.40236244573789    4.75654464947335
H         9.11045117586373    3.44804075341220    4.00772370466678
H         7.59333796032149    2.67364455736150    4.47578636278227
C         2.77975227016071    6.79619885671939   -0.35316798908125
H         2.99969780227211    7.87060641294585   -0.31089944607713
H         2.14227313660952    6.52328853957536    0.48936730167071
C         2.17271072407761    6.42095188129812   -1.70088104997370
H         1.59179358708600    5.50194335375825   -1.61629182911887
H         1.53515081226220    7.20765836610630   -2.09595291852738
C         3.42361550415852    6.18127449212408   -2.53918658385047
H         3.84903511968881    7.13014620497570   -2.86648682772793
H         3.24494744306680    5.55499632585359   -3.40942116957195
C         4.34015738689682    5.50768224668025   -1.52433290265154
H         4.14820454063663    4.42780029104777   -1.48949720193359
H         5.39987590248371    5.68033730924627   -1.72542013747622

