74
CSD_code = PUMMIV | q = 0 | S = 0 | Stoichiometry = C24H42ClIrO4P2 | MND = 5
Ir        5.37553563310817   22.59282483090244    1.04317806937254
H         5.39525451842290   21.20898399532561    0.42743182870235
Cl        6.72275238042051   23.74142866763880   -0.50858121661179
O         2.27033419633752   22.70849022703375    1.35078777826537
O         6.14361835925275   21.48457427791307    3.86052188771329
O         0.47362275851273   21.39365535006571    5.78159115912380
O         2.24086409159599   20.85292151971269    7.04957530357217
P         3.29553227779261   23.09499811351111    0.13817459169836
P         7.01090811548013   22.03372515251157    2.59009853766213
C         4.21057246121217   22.02591104739088    2.56708119819706
C         4.76872798343513   21.60613163588260    3.77525933149863
C         3.98436048345833   21.34281384188400    4.88118867785518
H         4.41991878767994   21.01594876502451    5.81201075196411
C         2.60170863059856   21.50967902000106    4.79028769183913
C         2.01801611780205   21.96131611698594    3.60652108405871
H         0.95316182744334   22.11345031238601    3.54450854480509
C         2.82944831688263   22.21737772562133    2.51722868694141
C         8.17624477499410   20.58265313721774    2.33373412239732
C         8.91163028516663   20.80783083016212    1.01561372076531
H         8.19827770537368   21.03465173335290    0.22463372574229
H         9.61411968820331   21.63361318482378    1.08437313268393
H         9.46518022893157   19.91260275695573    0.73749192037810
C         7.27035189722955   19.35647020152879    2.20450648095200
H         6.50598705927044   19.52623123992113    1.44634149859784
H         7.85963439939524   18.48876095054465    1.91395128577467
H         6.77740121910845   19.13835741831689    3.14892411870766
C         9.14980415813676   20.36965990129164    3.48744342965592
H         8.61901914607800   20.35705551719849    4.43682908061396
H         9.65133918875046   19.41026065007928    3.36471795333352
H         9.91461964646831   21.14175956044476    3.51092551107298
C         7.84312313608137   23.53253295830050    3.37489686557478
C         6.72231444305026   24.57765323487378    3.37344048571402
H         5.86678956573589   24.23804634635380    3.96019105110180
H         7.07192009435527   25.51732287554600    3.80072831749857
H         6.40279877057692   24.78115542297726    2.35048480277039
C         8.97782546172763   24.01489549030200    2.47871357930138
H         8.64672087509203   24.06853250204608    1.44214321249108
H         9.29910403735743   25.00962989429106    2.78650076994854
H         9.83834622670479   23.35238197026979    2.53718198495925
C         8.30731117678833   23.30494033758537    4.81049947217345
H         7.53762476841105   22.79912059452153    5.38982760055125
H         9.21895123186059   22.71797695444062    4.85449484105455
H         8.50769625879141   24.26785746148379    5.28007992269702
C         2.91039693264475   24.93128913320042   -0.04028238069602
C         3.45927945545257   25.44265527144181   -1.36733166463025
H         4.48299879140443   25.09864195724870   -1.51013143786934
H         2.85479094091689   25.10495593854794   -2.20586778543403
H         3.46202393731577   26.53231054091536   -1.37333541950226
C         3.71059473915214   25.56193695610293    1.10424676279809
H         3.42160404393411   25.13717396990792    2.06772470183709
H         4.77664258147778   25.40620983631588    0.93969101253204
H         3.53886569596078   26.63726336819743    1.14619729141406
C         1.43380186230443   25.27401757913610    0.13572115363037
H         1.02321910481868   24.77381332090170    1.01020926643901
H         1.32980521742676   26.34944419365896    0.27886778001727
H         0.84568070727778   24.99617130124695   -0.73270308038829
C         2.57555972593668   22.05488548752859   -1.25535707809522
C         3.55902782865711   22.09264819443509   -2.42154977017498
H         3.58577555846261   23.07134295075839   -2.89199695436062
H         4.56272852896896   21.85734187310559   -2.07009129036375
H         3.27450996903526   21.36047890651335   -3.17537177837581
C         2.50329945661283   20.63051089925307   -0.70043452121663
H         1.76145876721878   20.56051769951430    0.09174739310833
H         2.22694293054669   19.93755992866219   -1.49291674176591
H         3.46908328521966   20.32780063429862   -0.29657707491818
C         1.17996677555907   22.49138588463056   -1.68725785678112
H         0.52718458403206   22.58907793785508   -0.82247872743644
H         1.20520986551639   23.43312154841718   -2.22941859989041
H         0.75526151816204   21.73875618741333   -2.35083525486097
C         1.79089726295893   21.21487549695834    5.98853341225624
C        -0.36416129169634   21.11974081544248    6.89274483038794
H        -1.38166565155749   21.31210155062217    6.56202821707385
H        -0.25218541138861   20.07940550337900    7.20554917342368
H        -0.10467009541338   21.76638140975891    7.73384362863683

