58
CSD_code = PUMNEQ | q = 0 | S = 0 | Stoichiometry = C18H34ClFP3Rh | MND = 6
Rh        7.41438150128541    3.14796545167334    2.82986872205217
Cl        7.93370783953401    3.52068681381867    5.18572167157476
P         5.32936444218530    3.70986828237380    3.54261238311687
P         8.09450085419245    5.34214854561001    2.13834620015004
P         9.48469983443814    2.20765965796135    2.86713560471698
F         4.97629064623488   -0.99995482448573   -4.13192232361564
C         6.62918456983277    1.29313873891387    2.12342307706385
C         6.83325923415369    2.26842563322762    1.12603861249531
C         6.74216235814382    2.51715494020675   -0.17273208568819
C         6.27125788704540    1.57815480441085   -1.18112141027127
C         6.25302023673328    1.97205651614159   -2.52202438712257
C         5.82160355347284    1.11626453570369   -3.51564967175537
C         5.40089307474534   -0.15283836317947   -3.16368625718414
C         5.40299801165212   -0.57870921285111   -1.84770017136906
C         5.83770256882965    0.28828877120001   -0.86572779554135
C         3.94164613123091    3.84568107301990    2.34446233502078
C         4.63162744423097    2.53238824014567    4.76100271847679
C         5.12196599924347    5.25337051484122    4.50779761024200
C         6.84296661719749    6.37429701227499    1.26322618869005
C         8.72608994548639    6.56509674882107    3.35297901593575
C         9.41043420206642    5.45861432326690    0.85278147801836
C        10.87118022072778    3.17501186010838    3.57285520992632
C        10.24162198451153    1.57024324543491    1.31789293179077
C         9.60105411864323    0.73464252808254    3.95085332941758
H         7.28705750627793    0.42588154113988    2.13960380631079
H         5.60583129873395    1.03951467345438    2.39479286699626
H         7.03766666395053    3.48687047819019   -0.55893892687076
H         6.58422985585455    2.96613993845067   -2.78746366348949
H         5.80788264725549    1.41833572350131   -4.55135616423170
H         5.06760894063632   -1.57577643815269   -1.60728129338256
H         5.84375888530437   -0.03329186118191    0.16376239147185
H         3.00276727277247    4.02743163188330    2.86581915549575
H         4.13916411113879    4.66199594454082    1.65270231626246
H         3.86792496039329    2.92384371748707    1.77043553099905
H         3.67535945170413    2.90335389008416    5.13002145374014
H         4.49310951235324    1.54968075815427    4.31506721721198
H         5.34020821865959    2.45068087667400    5.58426926609537
H         5.80600341947046    5.20724589937774    5.35394449643982
H         5.36341827557455    6.12584340891021    3.90512277034278
H         4.09470955264451    5.32963790659938    4.86438682816337
H         7.28900693514410    7.31102300242188    0.93034759543846
H         6.47462546400976    5.81968798075286    0.40210186483502
H         6.00192913521374    6.58973231674126    1.91753235728651
H         9.60005031429018    6.14656038594347    3.84849159637094
H         8.98385386526141    7.50682645452511    2.86918214584494
H         7.96414659458341    6.72985716306017    4.11241477431853
H        10.34362552949992    5.04178587256240    1.22329172814238
H         9.09959990576690    4.88396259429501   -0.01775578953489
H         9.56944379541374    6.49768451960850    0.56596271370221
H        11.76920509524268    2.55830839859071    3.61063877598572
H        11.06614209008499    4.06569914067143    2.98011173133853
H        10.58441653572706    3.47571775868703    4.57948799409560
H         9.55629467395336    0.87184344852650    0.84108274325106
H        10.41483168964758    2.39770387374701    0.63287456455507
H        11.18465284031657    1.06880184119971    1.53129472174157
H         9.25877680921942    1.02658009156032    4.94290120537335
H         8.96866513603245   -0.06974116539789    3.58099809669585
H        10.63451974204946    0.39172239667244    4.00102014285316

