60
CSD_code = PUMPAO | q = 0 | S = 0 | Stoichiometry = C27H31NZr | MND = 12
C         3.17712545716348    4.83943987165652    9.46977354476143
C         2.26926514428223    3.77584378032752   10.01202239639470
C         0.95642942713564    3.69961482416567    9.64238959529266
C         0.10141599324190    2.57358580123187    9.93984546084512
C        -1.15997118821885    2.51229565129592    9.46175416997139
C        -1.66320366649177    3.58328229383754    8.66782511132823
C        -0.86316457016635    4.66981942148971    8.46474481879585
C         1.50735239844189    8.61758835971099    8.22081838122081
C         0.57551748975191    7.76375349476379    7.58021755144466
C         1.29814351088844    6.76226138393468    6.88335355353764
C         2.67360271668502    6.97195544534752    7.12506370311348
C         2.80348895141302    8.10550889543016    7.96918489804574
C         4.14139461019038    8.69153591755071    8.34590039015990
C         5.19524114982608    8.25643992752828    7.32400130799179
C         5.14667387167836    6.74256501445509    7.12330232523205
C         3.84662472000878    6.34649723239543    6.42012552989594
C         0.52966739483929    6.31727571103423   11.66513602010568
C         1.92153579888753    6.24157182793188   11.88308166011218
C         2.50580862738221    7.45119626574819   11.42565861161735
C         1.17136107486797    9.85190997747197    9.01129827560645
C         1.62428302965350    9.71112330083211   10.48170715426945
C         1.46504333395397    8.29642071677119   10.96747189871211
C         0.24599978637302    7.57759480684483   11.07987322650277
C        -1.16250811102712    8.06124025011726   10.83932536074383
C        -2.11765117839920    7.30188552222234   11.76461395129097
C        -1.90617514965692    5.79516565800323   11.62511259828340
C        -0.53709211863493    5.38700860844778   12.17478511132167
N         0.39435752415866    4.79046510708924    8.93288391297711
Zr        1.61814989818139    6.39119087307419    9.37038178998006
H         3.46474684387915    4.54781448334321    8.44147908478586
H         4.09454668242468    4.90511431602514   10.07718831533509
H         2.67500383635748    2.98291980725430   10.63753509570236
H         0.51679125380648    1.77773343812921   10.54163753148445
H        -1.79683607373915    1.66467618722840    9.66976744931916
H        -2.65953207061551    3.54171515598829    8.25931205108746
H        -1.23110771450478    5.51982816611341    7.88576392785461
H        -0.48552973900166    7.96711888224146    7.47276078852266
H         0.88443542764941    6.04270161177361    6.18677935065174
H         4.08098110558355    9.78374475791931    8.37467005415035
H         4.45473153261524    8.34677901697354    9.34239888938125
H         5.00041509289426    8.75086885891221    6.36975888234325
H         6.18749953402482    8.55939281786669    7.66484147695022
H         5.20147833854099    6.25204530310727    8.10007860547284
H         6.00185224634528    6.41686569685016    6.52755561258753
H         3.75095376880426    5.25748139964141    6.36307884697773
H         3.87465462204546    6.71859882950720    5.38811536799795
H         2.43445574569842    5.45221067922666   12.41754650471007
H         3.53610706040543    7.74966486608584   11.59132398881719
H         0.09087950017258   10.01461044732241    8.97111620268216
H         1.65187243788854   10.73074063847130    8.56767425638462
H         2.67464171400385    9.99989114125487   10.57417250866916
H         1.04025624405826   10.39547755358678   11.10696309670649
H        -1.47232134164616    7.89078135575403    9.79728428696473
H        -1.23181710862012    9.13599646814144   11.03546506101263
H        -1.92831076327942    7.59719009783974   12.79925518710202
H        -3.15112406782657    7.55946182072621   11.52242460031448
H        -1.97311272769844    5.51736156992794   10.56941836342265
H        -2.68940424127998    5.25635842821968   12.16241380360237
H        -0.55855975557337    5.44747779917962   13.27037420584904
H        -0.32006330982392    4.34734246467996   11.91189429360305

