120
CSD_code = PUMYOL | q = 0 | S = 0 | Stoichiometry = C59H53MoN3P4 | MND = 6
Mo        3.73795428979300   -4.72924442287044    2.14613767727358
P         2.66438864536308   -4.24929841364381    0.10613731360337
P         3.42039307457969   -6.92595911880123    1.35690424442814
P         5.00557209903252   -5.30296230986706    4.04562191488583
P         3.91367776590412   -2.60498064765729    3.14487261153275
N         5.33172717713044   -4.46973719024063    1.23121515435210
N         6.27556100275035   -4.25475720157888    0.66750722995461
N         0.91092861859852   -4.90905827661535    3.51057139172412
C         1.99734134883031   -4.87636589516795    3.04753134466893
C        -0.25564406137065   -5.05419975176609    4.16940957581838
C        -0.29171115710222   -4.94907532997352    5.56301220748156
C        -1.48953036573343   -5.10493589140390    6.22967653434598
C        -2.65657071633327   -5.36355939183836    5.52727924646451
C        -2.62042888186426   -5.46823365854652    4.14509056068489
C        -1.43151150168337   -5.31621288286826    3.46197770704568
C         2.91561320894817   -5.70851190560853   -0.99425735731211
C         2.42679113549061   -6.91510720727403   -0.21100450034841
C         5.51385299555089   -3.77056925944559    4.95842226637696
C         4.29076631409645   -2.86991765392470    4.93004434736341
C         0.85755904512148   -4.02060187457880    0.05325732893147
C        -0.00725295752388   -4.58547169489273   -0.87889511424580
C        -1.36559984331980   -4.32562383488097   -0.81314971899889
C        -1.87625034068919   -3.49157728597786    0.16767177592005
C        -1.02101429891498   -2.91550992589905    1.09301300472340
C         0.33284644431071   -3.18600735857311    1.03640046762528
C         3.18665923544794   -2.89159131341922   -0.98907257322905
C         4.37067312048601   -3.00178581554576   -1.71760692882792
C         4.83749807947297   -1.93127158253071   -2.45809436743618
C         4.13826900498234   -0.73579619031353   -2.47418036800466
C         2.96873594420561   -0.61406674788451   -1.74219814941782
C         2.49579210670645   -1.68169664610028   -1.00195794720654
C         4.72003855895492   -8.08866273258277    0.81771357334003
C         4.38544612031421   -9.40093083363180    0.48160953093093
C         5.35602525309284  -10.27479006055865    0.03513687254849
C         6.67018244389163   -9.84860212729348   -0.09286590655519
C         7.00701321726855   -8.54687770242740    0.22958709152529
C         6.03635348691553   -7.67064544828219    0.68654117297649
C         2.44189760517497   -8.00408156026859    2.43962226853580
C         1.06633259812192   -7.83493838721493    2.56832561183527
C         0.35755967726204   -8.54903186064568    3.51701445994530
C         1.01311172838892   -9.43935367158597    4.35105299528196
C         2.38339133461849   -9.60861061912003    4.23682914527540
C         3.09333416348643   -8.89006631482537    3.29430695624737
C         4.41169980878455   -6.25467878359545    5.48454714076307
C         5.27533816899612   -6.56096541844783    6.53600349673449
C         4.80428397885169   -7.22661820251164    7.65017099544266
C         3.46677214325326   -7.58624637217338    7.73417649574288
C         2.60556870974685   -7.28726456695429    6.69398717051448
C         3.07979617248120   -6.62854472513112    5.57192581324872
C         6.59615769359062   -6.11860975685426    3.73681621218891
C         6.70384676341395   -7.50003643074634    3.88266763148437
C         7.86268801547144   -8.15710525951497    3.51805949321819
C         8.92617268432869   -7.44442589547092    2.98833122945607
C         8.82107673727942   -6.07404095270881    2.81904481766999
C         7.66261199045169   -5.41276911921468    3.18483434319632
C         2.50672747826361   -1.45652250827418    3.23708391033788
C         2.38327869708403   -0.41467423497239    2.32071501879360
C         1.24647045752392    0.37243394579666    2.30722304038666
C         0.21668653285681    0.12697627833752    3.20067002855651
C         0.32819254686003   -0.91162726922584    4.11068232155812
C         1.46346898091251   -1.70025916649240    4.12824030352855
C         5.23914757295629   -1.45985137565844    2.63949765446733
C         5.45544719607789   -1.36054645510094    1.26777025643163
C         6.43405312651033   -0.52771373935590    0.75992195547343
C         7.21879569197698    0.21712329488081    1.62373889506600
C         7.00896663901369    0.13076996410340    2.99026968593575
C         6.02468192808278   -0.69745646973032    3.49962770695264
H         0.62334653849562   -4.75661127153068    6.10531455545231
H        -1.51435476595980   -5.02521462793128    7.30705514783741
H        -3.59053507203744   -5.48425815483337    6.05538801249998
H        -3.52837737181592   -5.67148790141208    3.59555619638433
H        -1.39566913092687   -5.39300064561533    2.38530275424888
H         2.42722460039199   -5.59132427804025   -1.96762513696812
H         3.99752356956779   -5.80505124334426   -1.15706283776220
H         2.56101948717413   -7.84933797910297   -0.76713201750481
H         1.36768769001450   -6.79290030442321    0.03868405608568
H         5.83394479493492   -4.00316031088814    5.97973450502733
H         6.34100617994464   -3.29384202166007    4.42026582458988
H         4.42356885787026   -1.93200139622855    5.47905668624592
H         3.44079201688867   -3.41250660334277    5.36377450668739
H         0.36342066147380   -5.22813695722170   -1.66410978704502
H        -2.03010068326312   -4.77567458162181   -1.53750247563328
H        -2.93747099133982   -3.29364367992435    0.21092229830314
H        -1.40631318193517   -2.26272747708308    1.86316539197240
H         1.00789574913700   -2.75278651182658    1.76053532959258
H         4.94259727506635   -3.91845410650938   -1.69255230866145
H         5.75528966574377   -2.03012783538764   -3.01992375179142
H         4.50604611749901    0.10038946444881   -3.05109151852120
H         2.42221926322155    0.31838958541383   -1.74651211164273
H         1.58592852399485   -1.57699590622469   -0.42701200450355
H         3.36067594341102   -9.73525267750460    0.58592323226634
H         5.09070325532869  -11.29222626937311   -0.21584154413258
H         7.42724040597484  -10.53472114331699   -0.44429514844052
H         8.02760640042095   -8.20737036278779    0.13039253230549
H         6.30965803572027   -6.66001360441655    0.94707590883407
H         0.54421649878522   -7.13408577093168    1.93115748980924
H        -0.70989844101384   -8.40410279089749    3.60996064709069
H         0.45775898872607   -9.99718769204854    5.09106769222941
H         2.90016528686237  -10.29674971853216    4.89073258810382
H         4.16423385815227   -9.01550393367951    3.20635772072255
H         6.32102412589829   -6.28789642181895    6.46888747398862
H         5.47935354272722   -7.46630764170309    8.45963748986087
H         3.10176366352114   -8.10207943841480    8.61059430532821
H         1.56334075443005   -7.56789133393704    6.74905598472549
H         2.41974658824087   -6.40837137149867    4.74729270730475
H         5.87131335802533   -8.05370482738392    4.29616312659775
H         7.93594884682107   -9.22843989942542    3.64156074485950
H         9.83294547216151   -7.95799554662977    2.70297306650766
H         9.64315267837647   -5.51628761399174    2.39386888213084
H         7.58866300065664   -4.34458130789850    3.02796392606572
H         3.18035032586754   -0.22584742668419    1.61435466499245
H         1.16210505364330    1.17985969554619    1.59384906345202
H        -0.67181263972224    0.74152535108133    3.18566531607503
H        -0.47450492518105   -1.11325247060431    4.80626651380687
H         1.53253984101917   -2.51794626030050    4.83079781015496
H         4.84051259981880   -1.94672711159828    0.59933720973858
H         6.58389765821799   -0.46726444424741   -0.30815480337206
H         7.99195054956209    0.86441365280249    1.23600045698934
H         7.61652545653405    0.71531341364353    3.66696164193306
H         5.87793158807397   -0.73710907050922    4.56914571543882

