28
CSD_code = PUNCIM | q = 1 | S = 0 | Stoichiometry = C13H8ClN2O3Ru(1+) | MND = 6
Ru        4.15871872246066   -3.23884244157522   12.72401860630789
C         5.73252357858387   -3.75933240095244   11.80917764665103
O         6.68389944183887   -4.06863680233828   11.27822333141747
O         2.96619505879508   -1.17770756755872   10.87229017713963
C         3.49168131217767   -1.96755099682089   11.48096010047301
C         2.94618016430031   -4.51036924747266   12.00249756997875
O         2.10158703719680   -5.19355940947974   11.70192244135626
Cl        2.28085453931065   -2.58712287115313   13.97397917993227
N         5.15088323779514   -1.84816997515921   13.87609710853542
C         5.45493504852259   -0.60054839558573   13.52306130414935
H         5.37326572557813   -0.35339718922069   12.47103833001328
C         5.86970444337979    0.35654432685154   14.43393324777956
H         6.09934061266446    1.35462726261384   14.09844309380053
C         5.96892212416324    0.00466131688478   15.77123226153096
H         6.27315329220271    0.72657655491709   16.51262195074452
C         5.67336324313828   -1.29651760170747   16.13979964197786
H         5.75119273724896   -1.59074489179202   17.17281148942615
C         5.26450369722399   -2.21036575918185   15.17007022600641
C         4.96105175256934   -3.62120456014507   15.45751361143944
C         5.04543107960669   -4.18471092980152   16.72950747046948
H         5.30961128746547   -3.58048523928300   17.58090945944527
C         4.77234900682061   -5.53107051032890   16.89992047387864
H         4.81941009552297   -5.97802095499470   17.88044180409007
C         4.44293958129659   -6.28955337848177   15.78715773387540
H         4.23323737520522   -7.34346330152877   15.86925276038789
C         4.37353320636891   -5.66504819257700   14.55309330382212
H         4.12172436301520   -6.23505964600348   13.66638485819828
N         4.61500823554916   -4.36582719812551   14.38784081717233

