28
CSD_code = PUNCOS | q = 1 | S = 0 | Stoichiometry = C13H8ClN2O3Ru(1+) | MND = 6
Ru        0.58334573099988    2.69457809096371    2.10941165216008
Cl        2.43762827292598    2.32633706648712    3.50189298396893
C         1.77508147374422    3.86920837296266    1.21138206516594
O         2.60328657862556    4.52324242128826    0.81525611015218
C        -0.97480445669569    2.99474612044478    1.07655833525495
O        -1.91703098071228    3.17211711741112    0.47366814175279
C         1.33422302315409    1.25536735135182    1.12340139855152
O         1.90953257698083    0.39386942357037    0.67923921945511
N        -0.40578907031593    1.48379968869965    3.45135664667840
C        -0.57507770003792    2.05400607663970    4.66150267050381
C        -0.99631683416954    1.30361222810346    5.75792287530110
H        -1.12047957034089    1.76463454496654    6.72319928658478
C        -1.24496197786817   -0.04952588994670    5.60494536354484
H        -1.55843133792749   -0.64583697552880    6.44727480023518
C        -1.08698872782023   -0.61772782941550    4.35023402312229
H        -1.27822155044509   -1.66475112374981    4.18104793164506
C        -0.66428174705588    0.18559231537200    3.30444709832335
H        -0.53769259220841   -0.23166214673484    2.31226220682583
N         0.04094745522278    4.06830358775345    3.54652421808792
C        -0.31709198760335    3.50157834557905    4.71661030804334
C        -0.45250541091666    4.26547067531440    5.87449801743352
H        -0.72473279316833    3.80301577352616    6.80817749666659
C        -0.21883633621989    5.62900105757335    5.82478887292714
H        -0.30493409780453    6.23065816775847    6.71584303979271
C         0.12275408173242    6.20193315654000    4.60944110059399
H         0.30296224502669    7.26068693119184    4.51981389212926
C         0.24388979527888    5.38368510533562    3.49876706514668
H         0.50642593760753    5.80596034654940    2.53583317995329

