119
CSD_code = PUNDOR | q = 0 | S = 0 | Stoichiometry = C89H24MoO3P2 | MND = 7
Mo       -3.59619194966932   -2.36438008123139   -1.61437795277750
P        -3.75157199931687   -1.78894831778750   -3.90476593276252
P        -5.54683386443562   -3.61534713665982   -2.27902573419968
O        -1.51982880560838   -4.50723759761488   -2.42374488659927
O        -5.46684389496513   -0.03168371467230   -0.82086780200475
C        -2.32581042889345   -3.76836221872530   -2.09552343249919
C        -4.79993040995229   -0.91773237699197   -1.10318397361164
C        -4.49239422763795   -7.03294373399686    4.40135593187532
C        -2.48751175993974   -2.57112179883585   -4.94548273980371
C        -4.65627229719320   -6.44702325478033    2.15244061193560
C        -6.36319717537576   -2.60206793144802   -3.58512141537698
C        -6.95548169945365   -3.95916921657386   -1.18311758286097
C        -2.03998631653355   -1.21854504788555   -1.42035391463251
C        -3.47074314037095    0.96810018986432   -3.52721574333437
O        -1.10649201995054   -0.57508524708355   -1.27741099908876
C        -3.43837115738090   -5.10456188100221    7.18981751929715
C        -5.31365670697169   -5.23055290943050   -3.08724561679559
C        -1.81748712562518   -0.57998893969653    3.45926987373806
C        -4.25745945158531   -0.50876837203000    3.39468379481289
C        -3.72256046248603   -4.79013671910551    0.59022019440475
C        -3.63798729904917   -0.05850514865165   -4.44633556673267
C        -2.85123125646050   -2.44351025984820    0.52574598041533
C        -5.35173200753529   -2.31164334968069   -4.68545629974524
C        -5.99635876183723   -5.64767331178679   -4.22682175749452
C        -8.33240556205250   -5.46653205649540    0.08749199856291
C        -5.72374522131312   -6.88391509903809   -4.78657558709462
C        -2.58476128423685   -2.80815223121538    7.26018694038882
C        -1.33422671345694   -4.37903148582630    0.96527940307424
C        -1.10685903742922   -4.52460221212402    6.70490500003721
C        -1.54664512505327   -3.01598473679357    0.88683581576055
C        -5.19083989057965   -3.08300740644801    1.14539548916665
C        -5.74048504444237   -4.31511206936309    1.63410711839331
C        -0.45727536348676   -4.92184626196426    1.96670027095876
C        -0.88853906310200   -2.15044942136710    1.82471413854305
C        -0.02410003354779   -2.66257520611980    2.78556363068948
C        -1.31426792856650   -1.87856480507877   -5.23491306900074
C        -3.48133276393244    2.57357019681124   -5.31039109647173
C        -7.31152862751251   -5.25490195158726   -0.82255519437777
C        -6.28645782079932   -4.94948703930919    5.07558109343278
C        -0.27743846122923   -2.51248856367945   -5.89422045213115
C        -6.25555450447198   -5.46858112699286    3.73145665622772
C        -2.07202873545926   -6.58692682111756    5.79629227778944
C         0.19544664127962   -4.07958120486204    2.86040908849033
C        -0.91721681489668   -6.51519562252949    3.77246282840892
C        -0.54169391399243   -3.28295912037480    6.24005203576680
C        -3.39451702782099    2.28158464743582   -3.96026193800782
C        -3.01944544974722   -1.30528777240380    1.43974327561267
C         0.29952773161934   -4.44227917102248    4.25037996741766
C        -7.62596589951232   -2.88168989724118   -0.60662843071962
C        -2.58380620562719   -3.91917564798612   -5.28067410293534
C        -1.02234528534630   -6.16179996043687    2.43475426710819
C        -4.83451937830114   -5.37302113865642    1.28809155814283
C        -8.99742646957950   -4.39204126938338    0.65236582547826
C        -3.71576352351686    0.23989971931649   -5.80689124406577
C        -3.97832445137537   -3.36107859954139    0.36584074750254
C        -4.05910638403678   -1.20935308128729    6.13155896061957
C        -2.45286451620669   -5.29147668247908    0.81388150422876
C        -5.34332475657466   -1.93507440282178    1.89940762179582
C        -0.96092970917009   -5.67976052443253    5.94841182839735
C        -8.64429007719217   -3.09873016494915    0.30123073912831
C        -2.36900617535977   -4.23123197203512    7.33606620596424
C        -0.05050708779136   -2.13997374200998    4.12934343004043
C        -1.79958118275096   -1.09237655746234    2.16701975700022
C        -1.54563993694618   -4.54781684860470   -5.94187165295650
C        -0.92969176801403   -1.11909024548762    4.45963116919606
C        -4.38376026268109   -6.08918898479573   -2.50534664142489
C        -2.97199411862130   -0.64292881577981    5.47962326943445
C        -5.43360387167523   -5.47054008095786    6.03909686445807
C        -3.86196881161812   -2.31053425645428    7.03841195800528
C        -4.12085146619458   -7.32726457138136   -3.06055226898891
C        -0.39427963760304   -3.84451549222496   -6.25628576825030
C        -2.25405635075045   -6.38776328308896    1.72163698309189
C        -5.85637215061701   -2.67683156951359    5.88593239673841
C        -5.37632425921638   -6.48983918418861    3.40112019082195
C        -6.44969964843211   -4.36289076058303    2.82688972621175
C        -3.63832019416764    1.55063111021093   -6.23427927082234
C        -5.38464383276991   -1.09620139062559    4.07354671400764
C        -4.22592010070705   -1.02174063021455    2.05206331985743
C        -4.97285405222120   -3.21793705541667    6.88631192453719
C        -1.45557954816438   -2.22161804138909    6.58345445492649
C        -6.50263383641239   -3.52538199783405    4.99696132420135
C         0.14848428282129   -3.24234322785700    5.03625582876433
C        -0.24602670426792   -5.63761673105705    4.69896270055913
C        -3.28695637097217   -6.30496693714082    6.40661267644712
C        -6.05306929299125   -1.97607833374971    3.14862180459860
C        -3.23023359381068   -7.32592677147617    3.76769290131231
C        -4.78322440182070   -7.72227233343291   -4.21137849122592
C        -3.33653968932008   -6.96578653343158    2.37725083636659
C        -2.04321786514464   -7.10529055387951    4.45312301196602
C        -4.51982067867959   -6.53183672545904    5.69574638982282
C        -5.28972751734143   -1.43728788205609    5.41541261034594
C        -3.07363233840462   -0.28327787197494    4.08865021968214
C        -4.76471494027411   -4.58858898493150    6.96204569049655
C        -1.64524773551309   -1.15932242305377    5.71011051847685
C        -6.60686647963514   -3.16729202826946    3.60577697517487
H        -7.27006913322751   -3.08401971378722   -3.96664430290591
H        -6.66067328715543   -1.66467017495693   -3.10059144186370
H        -3.39496375743616    0.73389632042616   -2.47416687809358
H        -5.70993500147811   -1.51545825711456   -5.34721485936034
H        -5.16942453720425   -3.20814676888097   -5.28638815242418
H        -6.74484557501372   -5.01849104388186   -4.68616345223401
H        -8.59982861076732   -6.47563878786149    0.36462780004559
H        -6.25093382844527   -7.19371153167505   -5.67743390353362
H        -1.21909580147940   -0.84195326250903   -4.93780583209817
H        -3.42138116239915    3.59780331799493   -5.64709706082531
H        -6.78725123817770   -6.09925662988876   -1.24830021509810
H         0.62780593025454   -1.96797446253698   -6.11921935620216
H        -3.26492748327898    3.07680113767064   -3.24136782747256
H        -7.34327990643193   -1.86962287144524   -0.86133415687457
H        -3.46384614351063   -4.48851743850747   -5.00786007921803
H        -9.78594135776226   -4.56060198918546    1.37046866638726
H        -3.82013277648286   -0.56435442727798   -6.52465065945387
H        -9.15574570479789   -2.25779492667943    0.74573007620787
H        -1.63163035163601   -5.59298690346680   -6.20126750458406
H        -3.87183417120134   -5.77996671961571   -1.60349876104423
H        -3.39647347737520   -7.98074284742540   -2.59767203604954
H         0.41716989106462   -4.33869150128362   -6.76932400779363
H        -3.69670410888489    1.77830498501185   -7.28863554214748
H        -4.57258590018642   -8.68328722860237   -4.65641979459100

