61
CSD_code = PUNFOT | q = 1 | S = 0 | Stoichiometry = C27H29N4Zr(1+) | MND = 5
Zr       -5.14212598016452   -0.56515026774640   -3.80867604465167
N        -4.65966424152241    1.33762955329086   -3.06451330355783
N        -6.99473367894799    0.30193183029132   -3.31439491519667
N        -5.94545905707300   -2.38207541374731   -3.10618902866644
N        -3.68868962583693   -1.33537170509595   -2.49812676481569
C        -5.66088186945280    2.18162870277597   -2.80631237053259
C        -5.43482856627483    3.55573950880370   -2.59264350622434
C        -6.28161746767003    4.58074064687526   -2.22303669918589
C        -7.61563248518968    4.52964766600093   -1.85111020008092
C        -8.42765145809062    3.40837951146915   -1.84261268608931
C        -8.16041649481536    2.12586038288656   -2.28163474509125
C        -6.99354024053500    1.53911397706198   -2.80821187161370
C        -8.23040851420634   -0.44726318774535   -3.46478152478823
C        -7.99615073383052   -1.72622075865378   -4.28552935117107
C        -7.26927572247722   -2.82675902671053   -3.50244120207853
C        -5.22457189825254   -3.10222509378146   -2.24149927199364
C        -5.61227425118565   -4.40093686888733   -1.85608313944486
C        -5.09760365764374   -5.27558927492190   -0.92015346158643
C        -4.07670967239085   -5.08304676162238   -0.00356914165435
C        -3.27600303905903   -3.95980449359478    0.11473351388846
C        -3.22601073333914   -2.82863085589314   -0.67697067225120
C        -3.99326408571101   -2.42549884584843   -1.78683766880408
C        -2.50604689765621   -0.55160956249679   -2.18700751809756
C        -2.33742306145707    0.56593167277405   -3.22397339588253
C        -3.27401847672345    1.75976637833002   -2.98266773526901
C        -4.61200355136890   -1.13605276067061   -5.91492036825858
C        -4.70478712963688    0.31103289474776   -6.14445231126559
C        -3.56270479681510    1.12040137868689   -6.31583265042894
C        -3.65781320330362    2.49887994767656   -6.36067038138550
C        -4.88793249264312    3.12805065179273   -6.23964582562031
C        -6.03621488064350    2.35560077049604   -6.13692452068618
C        -5.95871203101338    0.97452926845135   -6.10274668217520
H        -4.41717341347637    3.87178586428239   -2.77620395926085
H        -5.82214022759508    5.56034145251915   -2.18128810674473
H        -8.06520394171048    5.45730211375452   -1.52705818490148
H        -9.43318389884704    3.56221888178922   -1.47135342631804
H        -9.00093115548488    1.45116912832539   -2.19368281657973
H        -8.98336486438005    0.16564108426378   -3.98591159694118
H        -8.64232983791963   -0.72968630016316   -2.48110759840070
H        -8.96872531335321   -2.11823683091065   -4.59393795202951
H        -7.41873953985710   -1.48647790179603   -5.19038811375241
H        -7.86778522809351   -3.08461771609672   -2.61375151683759
H        -7.20754307444384   -3.72139003009633   -4.14446431626136
H        -6.45052767251266   -4.80049507567915   -2.40998058052817
H        -5.59176984039993   -6.23795186098663   -0.87447133904193
H        -3.88834243138388   -5.88955836963208    0.69045484787882
H        -2.55574491203333   -3.98194284797304    0.92298123297520
H        -2.46126853708062   -2.12482385314118   -0.37926014733161
H        -1.61121676168704   -1.19338376993978   -2.21242927799404
H        -2.58016410546681   -0.10324677367703   -1.18180321208317
H        -1.30880804145921    0.93245141524054   -3.18569450024491
H        -2.52019087519379    0.14058913706462   -4.22334307678261
H        -3.06196560953725    2.18544003010387   -1.98824761635428
H        -3.05119510648650    2.52963071364828   -3.73934966158522
H        -3.62928468435000   -1.54940518211663   -6.17935317080237
H        -5.40837975704126   -1.70622097947969   -6.41739834136702
H        -2.59743691265608    0.64896680354512   -6.46598979851134
H        -2.76539896628358    3.08922932242137   -6.51021428709113
H        -4.95656312199622    4.20372354128373   -6.26439171871339
H        -7.00328644510377    2.83772199347398   -6.11102284884708
H        -6.88036572923483    0.39359614497631   -6.13880347088869

