98
CSD_code = PUNGEL | q = 0 | S = 0 | Stoichiometry = C46H45Cl2NO2PRh | MND = 8
Rh       -2.99736301824810   17.40618560551456    5.13697144361936
Cl       -1.23631205885280   18.85123016911301    5.56162078268405
Cl       -4.28279521605767   18.86560869888856    6.37759095688040
P        -2.37408458638032   16.26378342754766    7.01849395515729
N        -2.88530791749117   16.46867310356235    8.59908164175282
O        -0.79734738830004   16.14946917875659    7.30554596839808
O        -2.77269116201213   14.70384984116417    6.68351565327973
C        -3.43827797078181   18.00954482063936    3.09981059539209
C        -4.60508629551935   17.33341232234250    3.58097069653856
C        -4.22170169538201   16.01036594108915    3.95150627987997
C        -2.83748633631022   15.82521288057002    3.57314716684416
C        -2.36276668412310   17.05133248905956    3.03569175148018
C        -3.40984256275558   19.38089620524941    2.50120955135292
H        -3.61971935736311   19.32080713011242    1.43090901484608
H        -2.43165751133097   19.83772912803697    2.63571069500280
H        -4.15561577757337   20.01977404720528    2.96883198997281
C        -5.97912615154270   17.91835182923989    3.61895047860918
H        -6.18051691415520   18.43381493742553    2.68038115501094
H        -6.07252233445999   18.64219325903788    4.43081790788165
H        -6.72635555925270   17.14207468451295    3.76375099673042
C        -5.14158781875337   14.90955246122943    4.37716852859902
H        -5.46092646852176   14.34022555021039    3.50140730472029
H        -6.02407579856142   15.30906633183542    4.87178192356028
H        -4.63795614448513   14.23094116714779    5.06154674976256
C        -2.15271266921290   14.49964372730083    3.49433485783509
H        -2.48233589868992   13.98661291921161    2.58799240158100
H        -2.40268370160029   13.87174042692773    4.34531110435513
H        -1.07214031114502   14.60900680594940    3.45177723246032
C        -1.03325778080931   17.31226552800297    2.40717908213490
H        -1.16556946935339   17.47216427622224    1.33601789741244
H        -0.35540766853689   16.47615972962525    2.55917941699957
H        -0.57711125620508   18.20599982419320    2.83178849390288
C        -0.00597766439377   15.54507182890705    6.34368951251815
C         0.83081029192146   16.34389500456029    5.55005176876356
H         0.81595291346307   17.41077409777805    5.70374146799346
C         1.62275030426392   15.76101955736111    4.60242036821060
H         2.27834908690347   16.36626967677030    3.99394061621807
C         1.57843631049245   14.36833443287040    4.37947482992469
C         2.32912324325046   13.76281420486743    3.34966875051293
H         2.96872962633571   14.38852791799594    2.74371423901280
C         2.24138814880878   12.42006888720458    3.11338573841435
H         2.81780520869582   11.96457164637911    2.32192761937558
C         1.38509665872367   11.62661932079037    3.89096161327992
H         1.30208109679676   10.57095352711084    3.67901300850739
C         0.65497394387598   12.17959157823000    4.90585410979399
H        -0.01169807076769   11.56279832323957    5.48874620259145
C         0.74423257368202   13.55824978789880    5.19611060807409
C        -0.01563133049736   14.17177518761728    6.23250073647859
C        -0.82518075689142   13.37383325787594    7.17094997342367
C        -0.23515152784341   12.31952306327997    7.92394667944712
C         1.15979510225752   12.10855893136286    7.95488415106367
H         1.80405817168610   12.77669524932868    7.40481905818266
C         1.69946415944628   11.09195851688020    8.69222033039887
H         2.76982419922508   10.94974835364989    8.71366749497977
C         0.87571820790662   10.23019239014738    9.43118297794329
H         1.31896529893040    9.42478929920209    9.99803228009396
C        -0.47628236372699   10.42593241506158    9.44604935879965
H        -1.11991746951691    9.78556251640099   10.03239108665950
C        -1.06230613598210   11.48049149210543    8.71524356545394
C        -2.44763282106744   11.73585283684086    8.76942261886821
H        -3.08105176464650   11.08507877825698    9.35411159465497
C        -2.98119749245729   12.81184730055937    8.12289132968081
H        -4.03257054265985   13.03858871944501    8.18508889178372
C        -2.16560434651243   13.64744307284566    7.34365828857644
C        -2.01211100864788   17.11416004923511    9.58498544444302
H        -2.60436736162276   17.20557388773996   10.50231768868525
C        -1.59940949570706   18.51529494962677    9.14411981672218
H        -2.48169907189669   19.09985381384644    8.89924137521222
H        -0.97884943441714   18.46653710953777    8.25307060356277
H        -1.05931545766810   19.02400625807956    9.93940630480828
C        -0.84716408982763   16.19874968885870    9.91688008420395
C         0.47636477954842   16.61963219866124    9.88709878154851
H         0.72258636437250   17.62731162826239    9.59582373253701
C         1.50207473108034   15.74695834776220   10.20762121083810
H         2.52577650245762   16.09032120886737   10.16401425916935
C         1.22514782920042   14.44573190947309   10.58565929034103
H         2.02548542302115   13.76639223781040   10.84003373206928
C        -0.09056744326333   14.02018044172205   10.63418168499324
H        -0.32172599175634   13.00985180052414   10.93796295386221
C        -1.11296491155048   14.88597767921678   10.29371584622599
H        -2.13286312469224   14.53174846307333   10.31162283134431
C        -4.34922096972950   16.54876652485344    8.71847820125227
H        -4.72326341099164   16.56852799281352    7.68363818645966
C        -4.90764814448904   17.78812937193849    9.41946568246903
H        -4.62379220504166   18.68763561543217    8.88348414907910
H        -4.58433646101352   17.85632170056316   10.45436677018355
H        -5.99338296116508   17.71981461015113    9.40952267517293
C        -4.92945502258840   15.31791923700327    9.37983732942374
C        -5.85438194382294   14.54385634617508    8.68791182030788
H        -6.11824654959399   14.81641378380488    7.67547700835803
C        -6.43893412304918   13.43514977897954    9.27637635820197
H        -7.15828994727446   12.84805106111427    8.72357007021649
C        -6.09636377772316   13.07669456806421   10.56891007478199
H        -6.54478966598705   12.20850735026264   11.02899046767108
C        -5.18497441826993   13.84567646027279   11.27140534201807
H        -4.92168467726687   13.58018511003183   12.28497270565317
C        -4.61673314522291   14.96431891001917   10.68662118240770
H        -3.93151159133789   15.56713028644746   11.26256179145634

