55
CSD_code = PUNHOX | q = 1 | S = 0 | Stoichiometry = C26H22AgN6(1+) | MND = 2
Ag        0.00000210864849    0.00000150966554   10.05575663521162
N        -0.58493137834975    1.85171996750991    8.97790592670464
C        -1.18840495367029    2.93454927828629    9.56729262190573
C        -1.86176299462500    3.03490336871043   10.77954823734341
H        -1.97049770026593    2.16790387945693   11.41712462039914
C        -2.38081772483411    4.26774185415780   11.11184301845672
H        -2.91322882751699    4.38894015394778   12.04257969307602
C        -2.24141409761358    5.37417025339154   10.26801769874000
H        -2.66631497856429    6.31822373457284   10.57090045626534
C        -1.57899358442273    5.29016887695529    9.05991860378906
H        -1.47560605336100    6.14551366743336    8.41140883682251
C        -1.05363477026581    4.05287576803675    8.72009041036605
N        -0.35097325074700    3.59651883839430    7.63306997838628
H        -0.09853649671984    4.13633247750748    6.82178204656144
C        -0.09065234456891    2.27495820703331    7.82694159507252
C         0.67931022163126    1.47015020041143    6.89450207762967
C         1.66037333454322    2.08086828083666    6.10783588384213
H         1.81645076374092    3.14649790011920    6.18546433474209
C         2.46417478706837    1.34243205616305    5.26495797179828
H         3.21749489566597    1.83346132448267    4.67037403346488
C         2.30495665988138   -0.03366545037020    5.19598194194716
H         2.93414123826986   -0.61997250162520    4.54508696445343
C         1.33086957362694   -0.65444484384516    5.95194122001009
H         1.19787947434790   -1.72514073868015    5.88743336362149
C         0.50185578792912    0.07645909607724    6.79941389750370
N        -0.47621731737618   -0.58576626191994    7.55451792821587
H        -1.35653713656851   -0.08368295563129    7.58946256389203
H        -0.61501764169784   -1.54014454275120    7.24144305392925
N         0.58492854084205   -1.85172338803444   11.13359571545476
C         1.18838706814679   -2.93455556921780   10.54419828680429
C         1.86173086125743   -3.03491156949442    9.33193596952557
H         1.97044631071339   -2.16791620161458    8.69435062595337
C         2.38079410972275   -4.26774749149368    8.99964358120373
H         2.91320340342472   -4.38894447725372    8.06890646440003
C         2.24140937757640   -5.37417183843740    9.84347598716947
H         2.66632321444277   -6.31822120897210    9.54059812152845
C         1.57899859206075   -5.29017007013490   11.05157889235094
H         1.47561844342372   -6.14551506985738   11.70008896817686
C         1.05363355659886   -4.05287955565836   11.39140653065739
N         0.35099082005463   -3.59651990792365   12.47843817279881
H         0.09857151441317   -4.13633104091989   13.28973295312426
C         0.09066657221888   -2.27495917628760   12.28456729042656
C        -0.67928909836014   -1.47014943878450   13.21701139760881
C        -1.66034215958661   -2.08087069135386   14.00368804519339
H        -1.81639650784422   -3.14650510821699   13.92608254748456
C        -2.46415911502365   -1.34243457615126   14.84655135642918
H        -3.21746936018956   -1.83346762863702   15.44114457885512
C        -2.30496823444488    0.03366726312312   14.91550058637836
H        -2.93417461915484    0.61997651069325   15.56637276655342
C        -1.33088387538088    0.65444881196885   14.15953900514298
H        -1.19791143708266    1.72514808620885   14.22402946373377
C        -0.50185151196265   -0.07645566752172   13.31208410891564
N         0.47622168722828    0.58577362627941   12.55698211512297
H         1.35654995321050    0.08370434147292   12.52205295345139
H         0.61500429950972    1.54015763789124   12.87004790140626

