47
CSD_code = PUNKIS | q = 0 | S = 0 | Stoichiometry = C19H20FeO6S | MND = 7
Fe        5.57169838135491    9.95361515912478   18.36600858606345
S         6.21851982970019    8.21502511298326   15.48153839093324
O         7.30991176306372    7.29050861648720   15.78146715617508
O         1.95740970392030   10.59542118572736   18.27689327036936
O         6.72852543062657   12.75930284172421   16.93344961009109
O         8.45389444331748   10.06590012182457   17.85712536366681
O         5.41520654981477   12.26250418683771   20.12302325491583
O         5.59349371948348    8.27778758339940   20.73799060379445
C         5.27561050743724    8.33307270582228   17.07596803761183
C         4.02728249458757    9.02664078236492   17.17884741894836
C         3.97401338513808   10.41147472281533   16.93150181235720
C         5.20136353754348   11.03179726762252   16.53861020439419
C         5.39926656559199   12.52954006575705   16.50771186101820
C         2.66106310682124   11.13162798647046   17.17719330007857
C         1.75604187562430   10.97867891531390   15.94245087140797
C         2.28565983428017   11.71579917456030   14.75592595293810
C         2.30994424283129   11.23952064614724   13.52551953187868
C         4.89862212571253    7.20994404602736   14.73271455633392
C         3.78553325490414    7.84229465280370   14.20650761980935
C         2.77498255297834    7.07940961187849   13.65367235080324
C         2.86918424274997    5.69016625338491   13.61451511658723
C         4.00158710338683    5.07871866012576   14.13763081034464
C         5.01794459938362    5.83545084891757   14.69391119553958
C         1.76902356364577    4.88123278856723   12.99882015904379
C         7.33497736244010   10.00694507200074   18.03681470313094
C         5.44061733779815   11.35870722617807   19.41796033121051
C         5.54726685808512    8.93290912562207   19.80057834320082
H         2.50668501488210   10.66601242236837   19.06753160743065
H         6.91784285233062   13.70361656736174   16.91563264693602
H         5.26333820101417    7.30909714441144   17.44990444229341
H         3.12981326834082    8.52211930866752   17.52535592880202
H         5.75599118126441   10.56656867469883   15.72987686679040
H         5.25586404695019   12.91351389052365   15.48521985866908
H         4.70125489744203   13.04777914617114   17.17944905579608
H         2.84214279381268   12.20436173002396   17.34388458297857
H         1.62708378462658    9.91868551602796   15.71910244843940
H         0.77783884540423   11.38421202266813   16.21731006635245
H         2.64196276188556   12.71777487581280   14.95823120536515
H         1.94384611974323   10.25411128397117   13.28998070401917
H         2.68164872018092   11.81791095040146   12.69741287925595
H         3.71774821466766    8.91992849158015   14.23652781762264
H         1.89834457904407    7.55973696058967   13.24211270917105
H         4.09027869239807    4.00240511340763   14.10945975812171
H         5.90893628933107    5.37853713148569   15.09899367097501
H         1.89757497194485    3.82288972399593   13.20986246272492
H         1.76531766372720    5.01766325760918   11.91736069910519
H         0.79944272878741    5.20048042773810   13.37704017650565

