69
CSD_code = PUNKEP | q = 0 | S = 0 | Stoichiometry = C32H30Cl2N2O2Pd | MND = 4
Pd        0.00014703917466    0.00025986765536   -0.00025282201224
Cl       -0.62702912227998   -2.18917527236068    0.37145106332499
O         4.90917912729101   -0.38524526031582    1.30783522995382
N         1.66048805071467   -0.41729638899953    0.93641544337221
C         2.75339833324098   -0.61787066947604    0.31383986888673
C         1.59038840662211   -0.55547702407755    2.37442901475492
H         2.35316636746837   -1.25652420099581    2.73981112852404
H         0.59345594985015   -0.94286978513167    2.62468606321892
C         1.79899423219893    0.81942177506289    3.01089409112790
H         1.59995619897415    0.77211116789625    4.07805067767451
H         1.13056369308245    1.54692012929695    2.54902069583607
H         2.82451787535804    1.14930150621870    2.85635666887759
C         4.02211812572557   -1.12995744004940    0.95506221561390
C         4.10150761920357   -2.60245904990399    1.03406790519849
C         3.01535952163104   -3.42629080955302    0.72983914308755
H         2.05914510894676   -3.00899578195823    0.44809602913015
C         3.15226469188210   -4.79880870131478    0.81805656927755
H         2.30863576486653   -5.43125591841803    0.58788444296449
C         4.36110601066330   -5.35993400699745    1.20043400981350
H         4.46111191641805   -6.43349194726256    1.26079687667575
C         5.44223300024998   -4.54642894635535    1.50581358639267
H         6.38226081660937   -4.98438305235710    1.80614771609379
C         5.31373664204977   -3.17477264026745    1.42651269139721
H         6.14020053310670   -2.52015779273584    1.66086120854666
C         2.85489094156079   -0.33837308931403   -1.13031929829691
C         3.86988783030548    0.49628841778234   -1.59073060382790
H         4.59332279278960    0.89020791111182   -0.89272063795696
C         3.91950269892628    0.84939244907115   -2.92704239682081
H         4.69502336556753    1.51479063162189   -3.27488739538989
C         2.97500784817771    0.35913346749637   -3.81330058363430
H         3.01407736543049    0.64222183027423   -4.85467856915698
C         1.98691777623237   -0.50472599904642   -3.36774210829275
H         1.27001525264050   -0.91099655613128   -4.06650121796312
C         1.91461524368040   -0.85623609709805   -2.02901594323396
H         1.18859663573534   -1.60112471181155   -1.69841920200042
Cl        0.62761103325190    2.18969967454516   -0.37118911368084
O        -4.90922604213185    0.38522501249190   -1.30775056238331
N        -1.66058805153791    0.41706936268526   -0.93650268452879
C        -2.75342397282883    0.61776826306147   -0.31383505402488
C        -1.59048639223804    0.55538355275812   -2.37448399002151
H        -2.35330673135681    1.25641124210108   -2.73981101110696
H        -0.59358446435792    0.94288127725059   -2.62469447085532
C        -1.79892333078143   -0.81950717642882   -3.01099321576990
H        -1.59982713270365   -0.77211870492428   -4.07813497148340
H        -1.13044981348385   -1.54696112815069   -2.54910532954409
H        -2.82442905189297   -1.14945621656731   -2.85650733387478
C        -4.02213973166205    1.12991862696938   -0.95502626118111
C        -4.10148371722922    2.60242096159140   -1.03412041292918
C        -3.01531361484125    3.42624994087996   -0.72996204585303
H        -2.05914290406999    3.00895891640933   -0.44802187352024
C        -3.15223172558906    4.79877125335889   -0.81815952028808
H        -2.30867384876934    5.43122210275278   -0.58774449279504
C        -4.36111498061029    5.35988886549084   -1.20035951999214
H        -4.46109849762132    6.43344604378232   -1.26080945184280
C        -5.44225172219953    4.54639148827469   -1.50570715771216
H        -6.38223046378161    4.98434326131938   -1.80625392163097
C        -5.31372729167306    3.17473713694429   -1.42649577405493
H        -6.14014849446237    2.52010809266341   -1.66095364262397
C        -2.85490236534072    0.33840895914740    1.13034886468575
C        -3.86995718759176   -0.49617840371204    1.59076849338037
H        -4.59343719056710   -0.89002065642997    0.89276300435952
C        -3.91960048273712   -0.84930819487543    2.92707068875137
H        -4.69519861851162   -1.51462076012518    3.27490298312956
C        -2.97504975020674   -0.35916510893522    3.81333258629039
H        -3.01413787834425   -0.64227745109965    4.85470251848349
C        -1.98694893497083    0.50470085003723    3.36779506499259
H        -1.27007204618365    0.91096981417350    4.06658314950820
C        -1.91464160847812    0.85626485632462    2.02907349174442
H        -1.18862664859555    1.60117623467948    1.69852940521556

