63
CSD_code = PUNKEQ | q = 0 | S = 0 | Stoichiometry = C24H28F2N4O2PtS2 | MND = 4
Pt        9.87859483324609    4.94109227429666    8.84477969806229
S        10.51142631569796    3.43517255035090   10.43402460358779
F        10.90681296895259   -0.16619680087566    2.41696941214307
O        10.36456050090937    3.64894974909352    7.31358437354935
N        11.22957415107084    1.75977010832383    8.36816631533444
N        11.91204694117888    1.23111409854217   10.44617711866393
C        10.77325622488314    2.46224644981685    7.34595368122825
C        10.81304629922167    1.73837170036982    6.04630522564831
C        10.19047013187332    2.31067608413791    4.93866406830662
H         9.68707300323239    3.25824386829681    5.05578747456342
C        10.21615677079096    1.67485732948588    3.71312188928103
H         9.73852531772140    2.10150322443475    2.84522320779424
C        10.87444200231824    0.46185713811853    3.61035201840445
C        11.50350989904580   -0.12734246708122    4.69387420222655
H        12.00895447649567   -1.07214284186574    4.56939253555987
C        11.46933176676119    0.51774953479025    5.91457015800628
H        11.95543217431840    0.08934506310283    6.77517209233130
C        11.26166013841344    2.09186144872358    9.64690135139807
C        12.48812479981645    0.02311013001411    9.88921718724006
H        11.82324582985128   -0.33580714463348    9.10160308534098
H        12.53544316512721   -0.72450753214804   10.68362280344989
C        13.87915988278537    0.27617888431141    9.31462381509891
H        14.29170303464459   -0.64594307838601    8.91426790925427
H        14.54938389137515    0.65296204875652   10.08380359386200
H        13.81675349787529    1.01095236153619    8.51680564719295
C        12.06375743206160    1.44671638232847   11.86706976291003
H        12.99352827583663    0.96600015714682   12.18077106189724
H        12.14440757435697    2.51997870131928   12.05503874313087
C        10.88604964757064    0.88134202269371   12.65759437964617
H        11.04680653048137    1.03575796244118   13.72055849926819
H        10.77355936351966   -0.18415312563830   12.47061534278072
H         9.96972060195988    1.38660631379005   12.36699176341420
S         9.26407652513140    6.45458881181211   10.43437929659050
F         8.85640865968018   10.04774650561247    2.41847177607604
O         9.37242072540779    6.22449299189286    7.31186509506918
N         8.52454307220699    8.11932756948243    8.36880145075280
N         7.84085218102774    8.64470207310216   10.44753793789091
C         8.97487198817270    7.41500527549246    7.34537409579013
C         8.93914447862822    8.14006629318654    6.04638415665099
C         9.56020171689539    7.56595090293896    4.93884401622324
H        10.05943537622978    6.61614257775300    5.05565631853702
C         9.53821711972584    8.20280359404381    3.71376628547394
H        10.01474360244575    7.77479720512706    2.84593072116547
C         8.88517876814603    9.41867040771578    3.61140605790367
C         8.25771444256055   10.00971797282602    4.69485624542001
H         7.75634975761615   10.95672749767805    4.57066696389461
C         8.28815032145957    9.36354865324996    5.91507787836751
H         7.80302504246851    9.79331493024908    6.77557200828420
C         8.49684099125432    7.78865272633747    9.64789120120994
C         7.25220335729567    9.84625871454134    9.88981201329654
H         7.91331858755556   10.21144754897325    9.10185943775605
H         7.19727159836202   10.59391133122110   10.68366955068266
C         5.86383715000148    9.57863260778137    9.31539426610895
H         5.44154940971018   10.49641702859713    8.91523555737489
H         5.19780271082440    9.19469052245391   10.08467292097645
H         5.93382528141107    8.84476325556488    8.51737419605445
C         7.69577775773447    8.43033386401062   11.86928500166112
H         6.76208311767741    8.90204301457937   12.18502641844383
H         7.62687487193665    7.35661280645952   12.05938448457979
C         8.87013218412958    9.00911796313269   12.65505640829266
H         8.71426985894214    8.85508012419746   13.71880663726317
H         8.97127192338812   10.07534102764520   12.46576587387469
H         9.79058997853241    8.51257160673289   12.36247270766055

