76
CSD_code = PUNKOY | q = 0 | S = 0 | Stoichiometry = C27H43ClP3RhSi | MND = 6
Rh        3.52688760976136    3.66026700416632    1.72242841448650
Cl        5.51894494674787    3.66021893768413    3.16556736115004
P         2.09540841335153    3.66026707609085    3.58485898850172
P         3.89735720957910    1.39175734369519    1.78772136759902
Si        1.88289241719277    3.66025332582873   -0.00935801686534
C         0.06076988304104    3.66024991781670    0.59740658337200
C        -0.62170815082072    4.84940074332852    0.83031937461921
C        -1.94112838429891    4.85577310419383    1.25077612821586
C        -2.60792583047220    3.66026038349693    1.45891953275085
C         1.95636117627871    5.03873777390497   -1.36237119871253
C         0.81556784534560    5.54999782864262   -1.97052363095405
C         0.90177262277114    6.45769652449592   -3.01211311271890
C         2.13830480120894    6.86353179202947   -3.48281732601557
C         3.28663044801430    6.33822116868569   -2.91453466219019
C         3.18796164585054    5.43451917201437   -1.87292512372426
C         2.94085826984165    3.66026487016875    5.21382904936649
C         0.90260631405501    2.28734351880685    3.86280694220982
C         4.26421571536861    0.64690510063416    3.42758535202820
C         5.42810816841837    0.87505257185516    0.92921601571598
C         2.70407322726143    0.15049099767586    1.14665075906614
H         4.48942157476441    3.66015376499641    0.55990001818575
H        -0.11128778293426    5.78865090224723    0.67035809885933
H        -2.45166144281254    5.79484505051056    1.41582873369679
H        -3.63904506706673    3.66026514257498    1.78189040194166
H        -0.15858307282521    5.22943373318609   -1.63268225182259
H        -0.00109674393552    6.84566489169725   -3.46327681378341
H         2.20706491949798    7.57369048344726   -4.29454926648535
H         4.25806069754478    6.63141330895233   -3.28878012592355
H         4.08597250041335    5.01437513382555   -1.44378172260043
H         3.58034293095812    4.53673138320019    5.29105601051790
H         2.20663574531784    3.66026559442650    6.01994890743512
H         0.41242904125278    2.41600350054362    4.82776119303780
H         0.15432492425125    2.30976553176769    3.07284154477193
H         1.40335280599167    1.32265753346028    3.84180529620879
H         3.40445493937033    0.70144504382250    4.09103370144612
H         4.54289836804136   -0.39751270282777    3.28561830945899
H         5.09547439829597    1.19106324771423    3.87297851454961
H         5.62376395136426   -0.18073745529278    1.11840590071229
H         5.33209153751092    1.04155143137241   -0.14072159790910
H         6.24996867378007    1.47795668889291    1.31426924826512
H         1.75819722882568    0.23837357892946    1.67669897968175
H         2.52904987413121    0.32909243550003    0.08877599302590
H         3.10576328883562   -0.85248270035344    1.28601352253685
H         3.58034523243449    2.78380020448366    5.29106163780831
C         0.90259188874756    5.03317474459802    3.86280730935523
H         0.41242312894057    4.90451614660543    4.82776611348240
H         0.15430877408996    5.01073777406679    3.07284507687551
H         1.40333479656849    5.99786122295357    3.84179128790011
P         3.89734103464494    5.92877593947475    1.78774519493679
C         4.26421890721390    6.67364324607197    3.42759597004096
H         3.40444979374843    6.61908626974350    4.09103206319199
H         4.54291342654140    7.71806184036991    3.28564934231117
H         5.09546748266681    6.12946799998442    3.87298805635381
C         5.42808893862539    6.44548428831939    0.92922643404775
H         5.62376521934808    7.50127405072906    1.11840986336471
H         5.33206077263459    6.27898926674817   -0.14071256770606
H         6.24995579938575    5.84257597475561    1.31425991147426
C         2.70408384871659    7.17006102617210    1.14666053772591
H         1.75821187016291    7.08217260035251    1.67671425514019
H         2.52905942350292    6.99144755695748    0.08878706914426
H         3.10577725637099    8.17303702027161    1.28601838251016
C        -1.94113718445414    2.46474237856330    1.25077966945840
C        -0.62171649547846    2.47110426419444    0.83032321232108
H        -0.11130671910407    1.53184825449393    0.67036200030961
H        -2.45167823327419    1.52567508757086    1.41583388261010
C         1.95635437885577    2.28175708763508   -1.36236627726973
C         0.81555869098334    1.77050169428376   -1.97052280159572
C         0.90175953170809    0.86280520840476   -3.01211590327946
C         2.13828964557029    0.45696590935929   -3.48282110144516
C         3.28661744522200    0.98227434062036   -2.91454077536480
C         3.18795319653619    1.88597415011009   -1.87292752181886
H         4.08596653001320    2.30611684176997   -1.44378849137554
H         4.25804606510016    0.68907912663769   -3.28878855973261
H         2.20704589249533   -0.25319423185557   -4.29455249423552
H        -0.00111213415171    0.47483835881296   -3.46327688329332
H        -0.15858984337301    2.09106967891835   -1.63267928696401

