111
CSD_code = PUNKOZ | q = 0 | S = 0 | Stoichiometry = C51H54N4ORu | MND = 5
Ru        1.64034481526063    3.11805960962333   10.09355228865992
O         1.48712689052083    0.14561613763671   10.41001798474908
N        -1.35579011030177    3.30890499871152    9.50302895274794
N        -0.31735636783842    2.94684872559468    7.66500884637968
N         3.53599222767763    2.85622603843499   12.48981400654387
N         4.51181701072806    3.84346919937903   10.84572043069099
C         1.54694595984241    1.30923959831003   10.32768779558258
C        -0.10998023430215    3.12707961626633    8.99679437652077
C        -2.30625886759991    3.24092085107101    8.51636805825935
H        -3.35064648254707    3.36028253204948    8.72316845301902
C        -1.65528665636085    3.01182561287883    7.35666467916277
H        -2.01330151999703    2.89377451459746    6.35383774682829
C        -1.70734782223474    3.57019814545295   10.85800107886327
C        -1.80521442604495    4.89475077733852   11.28901968813317
C        -2.18575269983502    5.13447892975972   12.59930383877629
H        -2.25118467846498    6.15511183604583   12.94889571909624
C        -2.48283606884941    4.09624295993972   13.47116283165433
C        -2.40320175532616    2.79261549984447   13.00828191871300
H        -2.63750525239929    1.97520727724777   13.67454737717751
C        -2.02398004327939    2.50921561663052   11.70496501982166
C        -1.47345322691240    6.01897980396559   10.36061699366751
H        -0.41139872562620    5.97311137075896   10.10781561700442
H        -1.68038350135045    6.97880854855528   10.82558882171757
H        -2.04356277634555    5.94649262192118    9.43489839395914
C        -2.90605669125544    4.39304053081314   14.87907345546154
H        -2.92592278732738    3.48692280717179   15.47945732601455
H        -3.90464966394022    4.83041364696316   14.88745733045826
H        -2.22851561267184    5.10922611590362   15.34082746394405
C        -1.92464989978433    1.09548237745470   11.22497450319048
H        -2.35062229763936    0.41010031381559   11.95259080464003
H        -0.87532732699854    0.84176832051275   11.08193978229021
H        -2.43787724473044    0.96349092657738   10.27311916316046
C         0.67468079226356    2.75101581406966    6.66757033361365
C         1.23156013060055    3.86461889288180    6.03678903780633
C         2.15631562085640    3.65277370110301    5.02368634166125
H         2.58421437848713    4.50817755082837    4.51986458538577
C         2.53037306930012    2.37400360871525    4.63755728310613
C         1.95306534602864    1.28487284789991    5.27868488621961
H         2.23268484788982    0.28487731171477    4.97873112253692
C         1.01737709431862    1.45193958390297    6.28814192419791
C         0.84132013469447    5.24457830751451    6.45619280964527
H        -0.24152152922397    5.36624955979326    6.44291050620456
H         1.28436619855463    5.98715724818042    5.79792373451861
H         1.18214235703595    5.43476705996372    7.47896093718877
C         3.55116761295370    2.16253639233896    3.56052279784253
H         4.51475065710696    1.90365186410087    4.00270659653787
H         3.68115323224510    3.06289828678443    2.96440321770613
H         3.25642492080342    1.34516363704995    2.90505889889198
C         0.37778168846554    0.27561102191738    6.95884022217348
H         0.76250879270745   -0.65582098220406    6.55215660301945
H        -0.70347114168647    0.29592992323226    6.82128108410709
H         0.57229714395712    0.29388446987952    8.03038705077618
C         3.31947162291720    3.29758287718612   11.22864802304960
C         4.83406530171012    3.08206715767441   12.87666517861209
H         5.20177250762463    2.79101525162274   13.83980051431931
C         5.44701651897307    3.70183070501265   11.84660686397336
H         6.46217954780315    4.01919305128519   11.73099835467582
C         2.54613606622349    2.28491856971017   13.33421691303725
C         1.64354381410461    3.13671649575609   13.97685554592762
C         0.65927059274523    2.57601847423971   14.77378512093780
H        -0.05262423757894    3.22593196608953   15.26009883033389
C         0.56778450453370    1.20404408542952   14.95389705105655
C         1.50967138605841    0.38745783665031   14.34774227321094
H         1.46379924667856   -0.68171890137968   14.50002018514269
C         2.51149342911960    0.90689126354554   13.53983945350759
C         1.74895194229857    4.62140914772283   13.81485434718287
H         2.74498236674706    4.96966497582456   14.08927654519522
H         1.01529126261719    5.12485666848533   14.43773829593539
H         1.56745572631473    4.89236711639334   12.77296742082030
C        -0.51665442458469    0.60354316839681   15.79706734603357
H        -1.17502661681825   -0.00695357158037   15.17997657981035
H        -1.10910067768803    1.37791782738304   16.27740133272491
H        -0.09305697758141   -0.04037855646052   16.56657462274100
C         3.50521352517336   -0.02148817148030   12.90730067214760
H         3.06346713133770   -0.48219426452365   12.02454715426758
H         3.77267940210241   -0.81734035423044   13.59972587121608
H         4.41049560156444    0.49788948584418   12.60184264284185
C         4.76515242138320    4.55454264141556    9.64868849474847
C         4.40958041669567    3.99690206514613    8.41639163285301
C         4.72521536338337    4.67717102314043    7.24998118050033
H         4.44944287879095    4.23727198965056    6.30231707790639
C         5.36882866648206    5.90315616749389    7.27801407882877
C         5.65875252232882    6.46516774992603    8.51241005374137
H         6.11174069184155    7.44540884768456    8.55265968907872
C         5.35785146251486    5.82096158904880    9.70229497077669
C         3.64184252936280    2.71448953668459    8.33988771680833
H         4.07101619745378    1.94722797525879    8.99118130137703
H         3.63972666188875    2.33410715491183    7.31839792689075
H         2.55861295833547    2.90707303868598    8.60343527737101
C         5.71669786427675    6.63198289526676    6.01630661840970
H         6.79794029382350    6.72879822146129    5.92061542336364
H         5.29454363663349    7.63554414278129    6.03286774932606
H         5.33848516423921    6.10482921419129    5.14380784261910
C         5.61814464096897    6.53956083380495   10.99355547884053
H         4.92271119880374    6.22304743083425   11.76713297873568
H         5.49316370945953    7.60923278682784   10.83942773848772
H         6.63588148236589    6.37034435552392   11.34695143949622
C         2.52570916054444    7.63491048034887    9.50654562610231
C         2.88513130531213    8.13160895986256    8.25030536943064
H         2.82267903276700    7.48111885040430    7.38891495942028
C         3.32448041713939    9.43242822332834    8.11190528979023
H         3.60143530869806    9.80662607024860    7.13463361636533
C         3.41357848520769   10.26441288151992    9.21704990873891
H         3.76116456680446   11.28182314326546    9.10510356345559
C         3.05180673210159    9.78432954870492   10.46631510135029
H         3.11748166755006   10.43129677871945   11.33107589707567
C         2.61145263399811    8.48469003498522   10.61365356236165
H         2.33143057245524    8.10733275568342   11.58810857569003
C         2.12216608518055    6.28949840104138    9.66923981102742
H         0.76524565006627    3.34933693068608   11.30468574509378
C         1.81647354743381    5.11873301591692    9.81802044528925

