113
CSD_code = PUNLEQ | q = 0 | S = 0 | Stoichiometry = C52H54N4O2Ru | MND = 6
Ru       -0.85631090354651   12.65154507843585   12.89019471313130
O         1.90969072068221   12.24215043911624   13.97036661277614
O        -0.61634211808392   15.31980047181217   14.24573560327432
N        -2.49400647893872   12.32932322677028   15.55661309502777
N        -2.25024575931130   10.44500055167175   14.57042984011900
N        -0.06094352174121   12.55499260606857    9.87383046204204
N         0.17372826720789   14.54903118087113   10.61109307878958
C         0.84033238577475   12.35709363540410   13.53152425974135
C        -0.79586752789194   14.32785217419667   13.68257559902097
C        -1.86914661077097   11.74336519289441   14.50443629565890
C        -3.25097328802807   11.42055985845182   16.25099289955856
H        -3.81547453511616   11.69722835419709   17.11825510062807
C        -3.09661209210126   10.23307098687151   15.62879544133918
H        -3.50234772410231    9.26549706610135   15.84486738810859
C        -2.32618986485469   13.66063263255944   16.02974866043779
C        -3.29680421422119   14.62386665903516   15.76088965281653
C        -3.09802814514451   15.90949522653905   16.24341992247122
H        -3.83217132295598   16.67024511754011   16.01902886019559
C        -1.97926593779962   16.23869696857129   16.99156747679089
C        -1.05484327855856   15.24530438113426   17.28653092200395
H        -0.18669415196673   15.48939923372246   17.88199502764034
C        -1.21151993302099   13.95172961202499   16.81925105338742
C        -4.51223005977910   14.27379693561074   14.96308090435064
H        -5.13004765109246   15.15175211821790   14.79518029432375
H        -5.11023346447986   13.52298564166596   15.48019270185205
H        -4.21856557418445   13.86113778936905   13.99680713526796
C        -1.76460806883252   17.63357134970544   17.49526623111699
H        -1.84535520540284   17.65974189986947   18.58213783002820
H        -2.50012843622686   18.31684754803615   17.07798531123085
H        -0.76798075442157   17.98122743605346   17.22776422670266
C        -0.20081480452328   12.88995945135872   17.12995938648654
H        -0.68138218117191   11.99916181920602   17.53497618890303
H         0.52700808678017   13.25333812983982   17.85050865867272
H         0.32871995889223   12.60166478880095   16.22135927787466
C        -1.78498377290502    9.33666876757493   13.80529457005614
C        -0.61024586944014    8.70117678188796   14.20992796964574
C        -0.20935755481908    7.56131362594498   13.53429689308661
H         0.69989576700768    7.06123168662645   13.83688278919984
C        -0.95737553757498    7.03787211056366   12.48866276218549
C        -2.12124560020396    7.68806448575393   12.11142161969289
H        -2.71396779027670    7.29271059707686   11.29955577192819
C        -2.55667269317424    8.83475164388456   12.75964604466853
C         0.19123419525179    9.24079694126067   15.35486339622166
H        -0.41714352331277    9.31398739933740   16.25692952934220
H         0.55528384783370   10.23861355963417   15.11356634225462
H         1.04475937546700    8.60085441541622   15.56180697854183
C        -0.50604337292514    5.78049304716938   11.80945640973734
H        -1.24691232282262    5.43432611399599   11.09447001270173
H        -0.33446995139393    4.99406854369704   12.54335345937245
H         0.43239286112378    5.95305455496719   11.28448474792932
C        -3.81615353597905    9.52775977778276   12.35055857239654
H        -4.54685650035208    9.51683922721786   13.15980524190230
H        -4.25468347556201    9.04987921968074   11.47907255100665
H        -3.59782478248080   10.56905960861905   12.10961053567244
C        -0.18948622990998   13.30122917928654   10.99767015239708
C         0.37483711498769   13.32065593110234    8.82177426212502
H         0.54114076777181   12.90339650714266    7.84926769215951
C         0.52447572200528   14.57847154061934    9.28624081107557
H         0.84267528129515   15.48003058893467    8.80313082909625
C        -0.33748257315447   11.17464962724958    9.65075888004373
C         0.65724408696148   10.22533056411525    9.87446383926169
C         0.40947224369088    8.90940056289582    9.51253576953489
H         1.17843133044696    8.16848234626784    9.67859988924637
C        -0.78785580183722    8.53304677323098    8.92496124495508
C        -1.76399163615132    9.49884828131983    8.72308809525996
H        -2.70319025124622    9.21574383352009    8.26905358487019
C        -1.55561912342584   10.82394810108704    9.06689328717787
C         1.95996810616339   10.62762824564983   10.49100537284926
H         2.43364645410866   11.42656393996541    9.91980809665460
H         2.64112400998791    9.78265591628466   10.54331687878101
H         1.78129438725787   10.99665784999369   11.50144189266030
C        -1.02160627478515    7.12678667909245    8.46166718072355
H        -0.22958082886797    6.46514599952598    8.80028969610858
H        -1.05257996385899    7.09570372013866    7.37220773502561
H        -1.97564922489972    6.75349689490055    8.82837444810908
C        -2.59955535952044   11.86417886124442    8.81127497057134
H        -2.83319149671905   12.38276271490085    9.74151152427941
H        -3.50898690405765   11.41215372656012    8.42482672027118
H        -2.24509376131139   12.60236156079547    8.09091782501309
C         0.19915782533633   15.72620468870757   11.40778974882266
C        -0.94144932872956   16.52828785227742   11.47104548035068
C        -0.89202962226986   17.67408977628038   12.24726265743910
H        -1.77336946966599   18.29435809539042   12.32648194330909
C         0.25667034359653   18.03294155398347   12.93957408078242
C         1.38729212947447   17.23890110688575   12.82122524801722
H         2.29062634767808   17.51555986145546   13.34601856909410
C         1.38053805849326   16.08315548302312   12.05537628918253
C        -2.18356397207562   16.13457567405199   10.73570555074398
H        -2.56138656423030   15.18662170301478   11.12645301698612
H        -1.97936089720525   16.00185318755392    9.67274136308284
H        -2.95550368356899   16.89044600745657   10.85255438074950
C         0.25582885770109   19.25202062915389   13.80995996195264
H        -0.18259755830276   20.09983739241620   13.28633875998210
H         1.26424090356764   19.51246867107274   14.12154809955411
H        -0.34315444774280   19.06291627063907   14.70054899444556
C         2.60100856740449   15.22294099274300   11.92813876297108
H         2.39285651046516   14.21477796819228   12.28568076363853
H         3.42224591433688   15.63354299970366   12.50923074449410
H         2.91392867490053   15.14791781486041   10.88600235018372
C        -2.75347189959625   12.94571196544915   12.18309303034973
C        -3.89528532090160   13.07775204582070   11.77904850967189
C        -5.22467946991185   13.23074071257065   11.31083988370380
C        -6.28854790499238   12.64447801223953   12.00223816121212
H        -6.08526524697815   12.07281660477010   12.89766979469727
C        -7.58327277935087   12.79146805569823   11.54743852116596
H        -8.39866885703125   12.33330538500057   12.09063232318970
C        -7.84338889575409   13.52225406496251   10.39880322483196
H        -8.85824969001493   13.63561480635506   10.04531155723217
C        -6.79507906070172   14.10650925102107    9.70575101437351
H        -6.99389934863325   14.67705981764233    8.80865971931955
C        -5.49696115459759   13.96497341876525   10.15345314988647
H        -4.68069823632636   14.42242245249978    9.61106842055170
H        -0.90572637416680   11.24355806271451   12.23630893646892

