49
CSD_code = PUNPEV | q = 1 | S = 0 | Stoichiometry = C23H21FeN2O2(1+) | MND = 8
C         3.17304851681217    8.39054761782193    5.01699354814220
C         1.66304835944723    8.49781867944859    1.94145577680621
H         0.66215539993320    8.87224321524445    2.06947803043745
C         2.00323434357869    7.24091756601191    1.36853854612715
H         1.30270177566433    6.49947621111834    1.02129907647300
C         3.40166471344900    7.21078663133292    1.17777425427252
H         3.95368563364685    6.43901629880628    0.66790603618410
C         3.93165573642535    8.44695005748776    1.63210983362006
H         4.94379607172959    8.78267362325728    1.47924000735336
C         2.85348897323613    9.24646281881964    2.07819588644645
H         2.92082471219831   10.27743415727305    2.38652676316254
C         5.34694577878720    9.49870284001505    4.68290370080579
H         5.50314811220518    8.94966474305071    3.76881048693463
C         6.23175186979933   10.38669830553407    5.19075840411289
H         7.14854683847431   10.58901264489469    4.66270389866229
C         5.97138430071933   11.05122442011069    6.42012969730057
H         6.69036725687899   11.75950408201541    6.79662866392120
C         4.83383638797503   10.77795231772116    7.10997193516544
H         4.60218601496747   11.24576158222115    8.05234964660317
C         3.91819133002611    9.84144621925353    6.57888549720494
C         2.71919114034286    9.32214869565507    7.00172222964248
H         2.15262496247300    9.51421950326225    7.88848320095338
C         1.13267633973952    7.65540084575782    6.16672161844720
C        -0.07181399499718    8.10860762318104    5.62929229259111
C        -1.19565367208896    7.31065591689613    5.78058417480911
H        -2.13440326874801    7.64500879744728    5.36532648407801
C        -1.14272763467678    6.10126578007620    6.46079651134672
C         0.06929788155455    5.69171601642784    7.00694967688083
H         0.11717579255113    4.75704130302034    7.54444758450541
C         1.21755732457173    6.45268438112494    6.87489066696410
C         1.76610876082976    6.22588649804738    3.95322766808416
C         4.22697010776512    6.29160465020287    3.89540567819395
C         2.52459793115031    6.00212671213312    7.45037423601665
H         3.29976584672880    5.99187874924792    6.68255127433153
H         2.43210067927588    5.00280978869518    7.86401097302147
H         2.84786102475212    6.67205926144702    8.24667355026870
C        -0.15927685155703    9.43979622242883    4.94962200835521
H        -0.34970987523501   10.21800143380683    5.68931295278277
H        -0.98219220022946    9.45189359663639    4.24052119724347
H         0.76558062577244    9.68539322822588    4.43232026307645
C        -2.35801898929530    5.24349650114664    6.59082959215727
H        -3.26595279241793    5.83437158049847    6.50730054900976
H        -2.36133914177178    4.71651476581192    7.54136545908620
H        -2.36572309050302    4.49706138902732    5.79642610075773
N         2.30700256388820    8.45032215578202    6.04464802121171
N         4.18206769737456    9.23322238340985    5.35079280891741
O         1.03374231564937    5.36773027849328    4.10391392360516
O         5.02025007887368    5.56915699222653    4.27606278413391
Fe        2.96457831227847    7.36853091844560    3.33956682979435

