69
CSD_code = PUNTEZ | q = 0 | S = 0 | Stoichiometry = C30H30N5PS2Zn | MND = 4
Zn        4.27918048088462    3.67148048154913    5.11183485511658
P         2.65077861902322    2.24131699367107    3.26152777056718
S         6.00426422884894    4.43915175629213    6.67898634504166
S         6.47510941983819    4.49527757316187    3.78218840421467
N         1.86390703954750    4.62888454816949    4.06098540100147
N         3.09005422342883    5.11591232360616    4.34167414247692
N         1.61061383065005    2.84629723165337    5.58014407866942
N         2.72407008516829    3.01726445183187    6.32338574852529
N         4.10459384549497    2.07310652513487    3.95343169197531
C        -0.36118093793781    5.38401384066190    3.25216031262594
H        -0.62119729709707    4.34305342741056    3.42738536055816
H        -0.52039227554126    5.62509815196104    2.20258459944473
H        -1.00904761088614    6.02476676705215    3.84809916885795
C         1.05870518911064    5.60893374867315    3.62129366922769
C         1.80566399687255    6.77392488941482    3.61441653966207
H         1.47599820333345    7.74858943227216    3.31783840271715
C         3.07307978293513    6.41853406116737    4.07676101302457
C         4.26423148021165    7.28235332077926    4.27239070324448
H         4.66146301713190    7.15506269855191    5.27874128061590
H         4.00195067623209    8.32538989888533    4.11913401426769
H         5.04746302647596    7.00450028943073    3.56731505839404
C        -0.69370034681861    1.94125776437605    5.74035952279329
H        -1.27596113340705    2.85586093508519    5.62927881569323
H        -1.22544865287575    1.26683050901081    6.40521869593315
H        -0.59431157658661    1.47963941531108    4.75975786358015
C         0.64610601066299    2.24953751140916    6.30065131086280
C         1.16552774193758    2.02642328109468    7.56210878967258
H         0.66980928921284    1.56638284057962    8.39237894046908
C         2.47069213706283    2.52675205841667    7.53171882983966
C         3.48169026380389    2.52539000875282    8.61935780546909
H         4.09388098190564    1.62552486088850    8.55870155156559
H         2.99112192744391    2.54362679815276    9.58924062817562
H         4.13947885619444    3.38577552832373    8.52629791705336
C         1.51274026065727    3.24530340304598    4.20607437902832
C         2.67124867893812    3.05098395368617    1.64207061681988
C         1.47449804850124    3.39512212303911    1.02154081896756
H         0.53959782000721    3.09283546470497    1.47095321914947
C         1.49746826591838    4.12816914085842   -0.14999473754176
H         0.57072205156406    4.39377243144405   -0.63828806874678
C         2.70768164013275    4.53010963094260   -0.69425032606685
H         2.72092156232284    5.10737436317639   -1.60707528736461
C         3.89812796955975    4.20264486135057   -0.06583240941603
H         4.83971490462606    4.52672543929810   -0.48316321343461
C         3.88356181870423    3.46586182766306    1.10478800540533
H         4.80742632704897    3.21815291172641    1.60926996956096
C         1.84124091054199    0.61616496747233    3.16152012899590
C         1.94040801438359   -0.18641260371538    4.29320469841059
H         2.52040889106350    0.16005077470796    5.13806401856995
C         1.31513693894502   -1.41839276590365    4.32657049981969
H         1.39237819878706   -2.03888167155263    5.20705984379388
C         0.59392988612695   -1.85627223118094    3.22741266964573
H         0.10599525176371   -2.81940656846224    3.25079871754708
C         0.50612551099433   -1.06471458187000    2.09389622955167
H        -0.04639232031543   -1.41298001242959    1.23339352253876
C         1.12688570739197    0.17143831813211    2.05737547385474
H         1.06935072712676    0.78401536998954    1.16900991388784
C         5.03470923666791    1.12046553295796    3.54781483388914
C         4.89589439533021    0.39154182846533    2.36893675996914
H         4.04353602982771    0.58725797671255    1.72656546472183
C         5.83846057634731   -0.55297801260545    2.01358723410351
H         5.71468587849985   -1.10892215036294    1.09504194034632
C         6.93844023339075   -0.78142140332969    2.82263757917837
H         7.67702160774818   -1.51687760383574    2.54101870019372
C         7.08790240853380   -0.05446849572764    3.99300577035717
H         7.94596389178950   -0.22229875647443    4.62784950732409
C         6.14537709849722    0.88545551026897    4.35684328556971
H         6.25709832248141    1.45251357808074    5.27285616052531
C         6.94976290031903    4.75972875510302    5.33811751579219
H         7.93577583352301    5.16892477190100    5.52247733368733

