66
CSD_code = PUNVIF | q = 0 | S = 0 | Stoichiometry = C24H37ClP2PtSi | MND = 4
Pt       -2.34769753185627   11.36179023213402   11.68683300600527
P        -0.66985704734082   12.91260654565059   11.59974088156298
Cl       -3.75531470530733   12.32372235666779    9.96382579080079
C         0.63842560517820   11.08586743708784   13.22116029638512
Si       -1.14579419528753   10.45953633124613   13.42584084957641
H        -1.45680332379439   10.85464678041491   14.84327280183141
C         0.80440620926025   12.24222389550297   12.45224254465691
P        -3.63595509312618    9.48870406767434   11.87105159483727
C         2.06182214960865   12.82490824772186   12.34316387508941
H         2.20630368972195   13.72064731809649   11.75677178504768
C         3.15233325819200   12.26425724143324   12.98491074480737
H         4.12621745973843   12.72287072619367   12.89092106132219
C         2.99292616960865   11.11755396628917   13.74376945011465
H         3.84347771523376   10.67619445246569   14.24311018377280
C        -1.56950351437170    8.60508246658848   13.48440999528769
C         1.73930437286543   10.54299422966772   13.86195293866480
H         1.61491251043776    9.65403665795810   14.46199024685292
C        -3.31409823035049    6.97548980295359   13.11353656174439
H        -4.28440903627364    6.71126303137618   12.71890752966022
C        -2.79269092023136    8.24744315208492   12.91003294667045
C        -2.59973414197428    6.03794075168987   13.83898246851408
H        -3.00608116982370    5.04795433801412   13.98904573076516
C        -0.01560657877502   13.42827323005860    9.94070554861273
H         0.96536627792812   13.90268474114004   10.06338448763162
C        -0.87006261257702    7.65396771617899   14.20803026829102
H         0.07490566533523    7.92038815354326   14.65730971647436
C        -1.36527511511137    6.37143202063137   14.37034941132117
H        -0.80144678877053    5.63780281297102   14.92850154519416
C        -0.96912512283060   14.38553564068198    9.23475152009856
H        -0.66745544901742   14.50808173529542    8.19544735795460
H        -0.97284744606969   15.36760257384590    9.70389277103711
H        -1.98107093009248   13.98251078885383    9.24873639217373
C         0.13722415656614   12.13116784787248    9.14891901649146
H        -0.84888610368042   11.68887332696671    9.00080959431545
H         0.76687551704467   11.42024540985888    9.68674375667745
H         0.57862269268299   12.31820342769529    8.17139058216577
C        -1.89510767402664   14.06179423369677   13.74766299894699
H        -2.32275394732869   14.93251454496954   14.24175548886925
H        -1.23820724364803   13.54871428386438   14.44849342204380
H        -2.70834432790942   13.38016044991514   13.47315372038207
C         0.03753032920309   15.39783132774113   12.81412898078700
H         0.56965679707576   15.69093078884173   11.91112054262660
H         0.73712836183059   14.91217424577835   13.49200477181863
H        -0.33177541833766   16.30211847848350   13.29621792749255
C        -1.12816884913319   14.47251447235760   12.49336235262933
H        -1.82721241177236   14.97942825260532   11.81588874895387
C        -5.35432737233574    9.56773779576460   12.55230852192190
H        -5.72026262406673    8.55397668992891   12.75687424213984
C        -6.27844737800575   10.28344539280839   11.57369784590981
H        -5.81948136561913   11.21288166603560   11.23824649859462
H        -7.22645941122439   10.52206297730167   12.05359814977510
H        -6.48284724275659    9.66999030502213   10.69846679360660
C        -3.70462192581668    8.74596411799378   10.17417976095096
H        -4.22315085256308    9.51259071470749    9.58226917530292
C        -5.22342270052792   10.34358975261924   13.86172572875685
H        -4.79756721804741   11.32871682145499   13.65602095896302
H        -4.56043537035315    9.82342498358542   14.55359180450431
H        -6.19358857113933   10.47669577371363   14.33714974194195
C        -4.41817840255421    7.41009114936381   10.01730870408015
H        -4.51928578094231    7.17619464336997    8.95810962773265
H        -5.41536622459668    7.43401690381776   10.45304565190744
H        -3.84653338439524    6.61003503969181   10.48308344536848
C        -2.25187586301774    8.67041792267751    9.70480410401720
H        -2.19618444067746    8.43404656599930    8.64386728472559
H        -1.70686745214162    7.90873645677012   10.26261822426826
H        -1.76165042789359    9.63839979460652    9.87329952858725

