79
CSD_code = PUNVOJ | q = 1 | S = 0 | Stoichiometry = C30H33AgB10N2PS2(1+) | MND = 3
Ag        2.58288603773975    3.29211153214250   10.45264077930364
P         4.65338116041334    4.01756873399142   11.63524007361408
S         1.70152299215635    1.06426214763744   11.98790757756047
S         3.91975271915420    0.94377570433461    9.41606919531874
N         0.26160291611828    3.01013477035580   10.90080599770149
N         2.63250411968185    2.82397180026104    8.05103250657354
C         1.60233226430349   -0.32908324560284   10.81234987137163
C         2.67731058116422   -0.38527996551446    9.56973146576513
C         0.17079827414056    1.94171573105821   11.68604150109112
C        -1.00557836946649    1.53865722825296   12.29548991783192
H        -1.01059578991368    0.68663711409320   12.95581302538786
C        -2.15585651796772    2.26868351193733   12.03776388305865
H        -3.09347915896575    1.98628184941557   12.49044374334734
C        -2.07410676729126    3.36726142063777   11.19605408820371
H        -2.94505946547202    3.95950666550285   10.96792856650167
C        -0.84236546018304    3.70647782682496   10.65996590327015
H        -0.72812659278138    4.56588436730504   10.01452912682487
C         3.41489470664267    1.75989623597674    7.90394146065817
C         3.87408288706835    1.31109906259171    6.67715101147474
H         4.53333511287219    0.45999159584874    6.62369150049405
C         3.46653036032277    1.99227360292495    5.54021970627583
H         3.79990576983134    1.67396111113959    4.56479899170246
C         2.62762578603104    3.08672691792677    5.68342302153494
H         2.28403026470656    3.64076357586902    4.82526947258737
C         2.24344170323508    3.47013761759161    6.95838093189909
H         1.60299028793675    4.32616860225075    7.11868524419259
B         1.03063195205018   -0.10948530323364    9.22022380861161
H         0.72252948892346    0.98159065974639    8.90697862352806
B         0.14472520160487   -1.10423332780564   10.39234132579753
H        -0.85100527586738   -0.66853611001865   10.83477792837385
B         0.38861657804873   -1.67715466612608    8.73302955587082
H        -0.49821522166234   -1.74644927530823    7.96944617289225
B         2.01865274690372   -1.20080506209054    8.22759809719142
H         2.33617165194472   -0.83083095077300    7.15990239174988
B         1.32591701982139   -1.89373410374530   11.44964242283991
H         1.11472111900717   -1.95172488175489   12.60106315891582
B         0.57784781985325   -2.80311732131970   10.12335219324205
H        -0.19688663913154   -3.65633546052862   10.33262801928915
B         1.73970068396072   -2.86326193584340    8.78092356730908
H         1.79659599046926   -3.76017645345736    8.02975511050838
B         3.19827060762746   -1.99147824482930    9.28637809166564
H         4.30339902876215   -2.11702455391520    8.91725278988743
B         2.94227450441309   -1.39557399703294   10.93233970915743
H         3.79724063575193   -1.04951455802268   11.65766484745604
B         2.32693106941314   -2.98654344801969   10.47084390202048
H         2.78933713763793   -3.96593414337674   10.91531997238953
C         6.07915923689173    4.34324902342810   10.54985542254712
C         5.86879084556598    4.43898613040359    9.17926914569187
H         4.86036831608073    4.32834565920367    8.79058667896057
C         6.93092140798988    4.68118933220295    8.32682957206774
H         6.76445219485293    4.75398248821424    7.26230246460715
C         8.20704254635567    4.83507092560539    8.84320590219778
H         9.03690939536773    5.02508123136421    8.18010394083275
C         8.41972825714550    4.75062609457910   10.21100041376018
H         9.41459914565501    4.87649115802849   10.61032575976500
C         7.36134918183457    4.50743234381721   11.06615207320559
H         7.52506586355229    4.44423322456481   12.13232124467773
C         4.82816301140130    5.34857568603432   12.86486211040905
C         5.61924243655773    5.23610251320056   14.00309595674723
H         6.12361795093991    4.30671928822508   14.22777254991775
C         5.74524991118294    6.31669435993060   14.85793753690260
H         6.35795677687342    6.22961684422448   15.74251414179199
C         5.09172204860826    7.50700386668108   14.58249181033545
H         5.19596570958625    8.34610255554537   15.25295119757600
C         4.30015447858119    7.62011572155587   13.45041781228977
H         3.78784342085630    8.54631306301834   13.23817045534951
C         4.16563220220288    6.54268702821008   12.59529408432444
H         3.54495286514852    6.61333321183803   11.70902027147463
C         5.13521436843665    2.51550823801815   12.54160370318196
C         6.06118338754658    1.60818928450865   12.03813782613879
H         6.59623878481062    1.83142539228147   11.12586401436038
C         6.29584952184842    0.42002715816404   12.70855697387314
H         7.01754190888516   -0.28102064250034   12.31742587932552
C         5.60401259969372    0.12567552313246   13.87179561091552
H         5.78786327383979   -0.80383794630349   14.38816073162266
C         4.67027422012316    1.02172411613659   14.36999064655282
H         4.12765887708680    0.79097668271488   15.27413313427704
C         4.42898650853629    2.20796186174472   13.70430843615258
H         3.69667342463016    2.91085620489767   14.08261224588141

