65
CSD_code = PUNVUR | q = 1 | S = 0 | Stoichiometry = C24H36ClP2PtSi(1+) | MND = 3
Pt       -0.36749715851408    7.18706765325458   10.28484803126318
Si       -2.66656028327205    7.17669216866740   10.06186226939017
P        -0.47108948683733    9.47136147263026   10.28725004164653
P        -0.48538093522113    4.91060329386504   10.60742842960933
Cl       -3.27996609055619    6.84505392160513    8.14545282374220
C        -0.14628439120928    3.62864298164104    9.31704462673597
H        -0.26027966698579    2.63191373807057    9.75774015959330
C        -3.13498995378156    5.61419454095726   11.05663865748799
C        -3.18802581753205    8.97442554347707   10.43521423549693
C        -2.21622172984134    9.97892579531915   10.36524552081661
C        -2.19693433916813    4.57669967233549   11.14720716369702
C        -2.59658889907317    3.33139403696875   11.61841698246680
H        -1.90157913043582    2.50632657896905   11.63008676325393
C        -4.80707374218371    4.16959924668300   12.01898189886214
H        -5.81589078202698    4.01829931090468   12.37027374462787
C        -4.43038874501327    5.39798467759482   11.50218835282665
H        -5.15623326841651    6.19373366744166   11.44093481702010
C         0.65089730895245    4.55893415669760   12.04129770329559
H         1.65557981213831    4.53552498347508   11.59750387913493
C        -2.59946425273664   11.31477556919445   10.37209909280654
H        -1.85760700147119   12.09119571764228   10.26076199098068
C        -4.52187908789933    9.33329405878563   10.56010360906013
H        -5.28100500471988    8.56793817783663   10.60608035672686
C         0.33690145091585   10.18470918418525   11.80115113025448
H         1.33366629958533    9.72116455848442   11.82153438209724
C         0.42566770852015    3.26102033799079   12.80389031428433
H         1.21752960136708    3.13463477686178   13.54037224380030
H         0.45035904916349    2.39802882500192   12.14178378287079
H        -0.52363484904636    3.28165827635682   13.33379731948665
C         0.23498748695572   10.25100663854758    8.77240372119137
H         0.14974795243025   11.34143327280812    8.80805096035157
C        -0.46911819201559    9.67528791502107   12.99593175091636
H         0.07907875498537    9.82530324225347   13.92303666324394
H        -0.68927224330611    8.60939275093333   12.88772360421349
H        -1.41598217995837   10.20689219532224   13.06780037673664
C        -3.89456925994009    3.12916871197784   12.05600035220475
H        -4.19232531660288    2.15917193009780   12.42332122945703
C         0.56197584769292    5.77303435972609   12.96813678220657
H        -0.44451552338699    5.86850772349461   13.37644699365651
H         0.81377380082904    6.69110225582998   12.41757065946766
H         1.26062875729793    5.67850636354097   13.79707142256592
C        -3.93470230717219   11.65786504404325   10.49745262345945
H        -4.22546604239366   12.69706151243539   10.50372877404615
C         1.27629710349359    3.81164719861175    8.79504536304500
H         1.44592410161788    3.16961500153197    7.93361129538860
H         2.01874287007477    3.56055636251169    9.54983762597406
H         1.43107624216657    4.84539735581018    8.48003058140872
C        -4.89464651699774   10.66615448433439   10.61065199979134
H        -5.93535985130808   10.93082391906392   10.71518580322083
C        -1.16653592430042    3.81682828784399    8.19721291703562
H        -1.08501836694512    4.81975213308065    7.77801617455591
H        -2.18248532471412    3.68057914929354    8.56407742089330
H        -0.99051800011018    3.09751264024154    7.40069766732444
C         0.50746284680366   11.69783997544381   11.83748095586553
H        -0.45237915472335   12.19671839489364   11.93847120025414
H         1.01082362900905   12.06851901311414   10.94696106094080
H         1.11243335460861   11.96976585958068   12.70062965597938
C         1.69842758826382    9.82449628183339    8.68873173844842
H         1.77041395676939    8.73493236944436    8.77852417954627
H         2.29471472023099   10.27719904835864    9.47897726944149
H         2.12854595490827   10.11106978083597    7.73160893224000
C        -0.56482335684849    9.69970299083423    7.59420891249134
H        -0.14413451911505   10.04247872379931    6.65175880620542
H        -1.60470433486968   10.01789788465062    7.64362915594371
H        -0.54072516815025    8.60618230604787    7.60628504694660

