75
CSD_code = PUPCEI | q = 0 | S = 0 | Stoichiometry = C26H46BOY | MND = 13
Y         4.96658288277989    2.55021383411492    3.62530431169454
B         7.17334873192538    2.65377524657038    5.13405064144860
H         7.51675250182992    2.88702385518791    3.99042105109223
H         5.76520630904182    2.44604897316653    5.19454177544749
H         7.63668714715494    1.64636912498999    5.54508959666205
H         7.35646044206576    3.57771596274400    5.84672921633081
O         3.16516754672696    1.63742022564822    5.41797391199642
C         1.75852468200939    1.37910798210472    5.32489123262690
H         1.60227558199943    0.39355526026586    4.86843578620707
H         1.31615731772258    2.14255919530792    4.68420831908990
C         1.22277646395183    1.38900072002736    6.75117988409776
H         0.30176068783197    0.81964973607592    6.84989975529828
H         1.04867847416551    2.41092427096480    7.08722007074240
C         2.39637603486009    0.77169796307207    7.50561447447872
H         2.38288647032872   -0.31388006194648    7.40144792647614
H         2.40602630022602    1.02248867422375    8.56324171820973
C         3.59355033665119    1.36587080868366    6.76590477551587
H         3.91053949433556    2.31206602809206    7.22139607335601
H         4.44975940424267    0.68598174330498    6.73555023781138
C         5.28127047375500    5.29045493437023    3.71933964081484
C         4.42651524236503    4.70318900821518    2.72041256667015
C         3.14420878338974    4.46657200657625    3.36491753629241
C         3.25435335254252    4.88289652255355    4.70413098503998
C         4.57088932638456    5.36763599815883    4.92225648190310
C         6.63799749541999    5.86876902214926    3.43614589482096
H         6.54072465638816    6.89264468707155    3.06516055444770
H         7.16925355824690    5.28949937568195    2.67982314451976
H         7.24724954523352    5.89281341214446    4.33672256539619
C         4.58073055220436    5.02623409585509    1.24839539239056
H         3.81184204499271    4.54363096394065    0.65085297405744
H         5.56092519186264    4.74218426770897    0.86174104161449
H         4.47855401719964    6.10659907578864    1.10891503497782
C         1.86711496580397    4.20252150848511    2.60642700302684
H         1.96946628422218    3.37860264398758    1.89871393751643
H         1.58195287661271    5.09376086286568    2.04096298502838
H         1.04453506544844    3.97082144316213    3.28100331302757
C         2.16949696455823    4.91885461445464    5.73909704598031
H         1.94470560573170    5.95182873218458    6.00908046780561
H         2.47268658385166    4.40251414877702    6.65122354167181
H         1.25078426882274    4.46584604993565    5.37323475176092
C         5.07890124687511    5.94140333173978    6.21162435385126
H         6.13459503459858    5.68938457448989    6.33891640411067
H         4.53180077058701    5.50878841162904    7.05306052499238
C         4.92235902311901    7.46397712053110    6.24678422028541
H         5.28608246225555    7.86700176100302    7.19018041100620
H         3.87667766617750    7.73979777433000    6.13112735275308
H         5.48472116542511    7.91762347813358    5.43495445042806
C         4.81089825916257   -0.13106155979298    3.12084797004556
C         3.87002938015626    0.52662003913028    2.28881874341503
C         4.59280058089040    1.36537008565120    1.38096252115465
C         5.98722600237002    1.20743163475293    1.66474023591160
C         6.11399780846858    0.28007881714399    2.73232483721790
C         4.50668856992513   -1.20732648508297    4.12562790779582
H         4.46806913746714   -2.18519818669700    3.63878322989151
H         3.54656962784617   -1.04268323708992    4.61281229859483
H         5.27763272488580   -1.25149099059410    4.89401306732194
C         2.41951326486518    0.16297787568873    2.11318175326618
H         2.12905948058702   -0.61452078383176    2.81556736623054
H         2.26057050270388   -0.22803415011060    1.10570351140076
H         1.75019862964700    1.01538038317537    2.24408923201090
C         4.02894334312909    1.85050419542684    0.07064847397740
H         3.03774898195232    2.28840937043046    0.18447435005852
H         3.93159402530112    1.00198213793354   -0.61312113234482
H         4.68289285821418    2.57781660554136   -0.40427141617714
C         7.11671503271312    1.73973983737044    0.82257926268338
H         8.02402756924988    1.86282544073911    1.41358024558911
H         6.86519696042455    2.70255945315280    0.37644277738807
H         7.34161406109184    1.04762835066561    0.00709627386027
C         7.40172242533087   -0.33144221495834    3.20952316476041
H         7.32179293403809   -0.62000960935397    4.26049819227512
H         8.21780314219169    0.39006452051919    3.13155740944706
C         7.74996567115471   -1.57152262218825    2.37996978256541
H         8.68222628390055   -2.01421802524979    2.72470137212471
H         7.85833800397346   -1.30495033691291    1.33166363831755
H         6.96035370444034   -2.31446991396788    2.46207959645150

