41
CSD_code = PUPDUA | q = 0 | S = 0 | Stoichiometry = C13H18Cl2N2O5Pt | MND = 4
Pt        0.51628752186829    3.22110609168150   14.94047247452744
Cl       -1.56261695693216    3.03351172824733   14.11979671830865
Cl       -0.07848638903547    5.15923556939626   15.92021035092913
N         2.35746200833971    3.23892598585484   15.63506776276368
N         1.21162001488188    1.59220301074217   13.99128592186088
C         3.22957541257612    0.35845735759895   13.58799588364374
H         4.28172081134543    0.22975840149178   13.78662559257272
C         2.53451488942156    1.39582367885430   14.21502201580607
C         0.56377577229287    0.78050942645209   13.16048331813680
H        -0.49007211198505    0.98748901662641   13.02284158361919
O         2.72447609465513    3.55159065481005   21.68245388633114
H         2.88228901269473    4.50198955161806   21.74573583345099
C         2.01012164087380    3.32690351357644   20.49935148747044
H         1.01667650856215    3.80094859998457   20.54847112619711
C         2.04405524190961    3.56216697690924   17.99813290016674
H         1.04550455830054    4.02077590590369   17.99754364584768
O        -0.12551725896344    2.07142109271221   19.00341669753385
O         1.92546765753322    2.14718024489335   17.88788086050307
O         2.80594632951416    5.32144917901575   19.52434983714832
H         3.17479393050323    5.77133138360940   18.75787040878167
C         3.11131075853023    2.30043563367228   15.16538556123540
H         4.13096701008321    2.15688098501347   15.51055755393079
C         2.76391824759031    3.93251021598131   19.29918564556218
H         3.78437776587972    3.51218620646617   19.28514344774429
C         1.17262984759546    1.57245873178859   18.92552463129000
H         1.16518149396003    0.49471910185042   18.69216664288570
C         1.82578827563817    1.81388805503978   20.30492946970856
H         2.80564920961196    1.32866013898321   20.34027969713825
O         1.06400721078768    1.22281284557107   21.30982247183189
H         0.18511029500330    1.62433324964166   21.29335564008001
C         2.55291049118397   -0.47866384537211   12.72448056483518
H         3.06701150044028   -1.28555027971829   12.22595521944071
C         1.19446928592086   -0.26263813628660   12.50810270027747
H         0.63239903282503   -0.89515762010974   11.84085050170884
C         2.81162086186169    4.02957484582327   16.74080092979634
H         2.56687695475110    5.07775392673326   16.55025828609565
H         3.89067923618981    3.89442462489904   16.89130043000544
C        -0.95746816528675    1.73990969576454   17.90702529544899
H        -1.05635029783381    0.65386096158915   17.81166836871190
H        -0.56510131315963    2.15109757705632   16.95930497149429
H        -1.92448238992363    2.18902571564214   18.11729366517634

