63
CSD_code = PUPGOY | q = 1 | S = 0 | Stoichiometry = C26H29ClN5ORu(1+) | MND = 9
Ru        9.21645875130179   13.94636156893898    8.32490446842992
Cl        9.86206856940439   14.24205514932336    6.07748222811320
C        11.08521367835974   14.46305146216476    8.79770727315442
C        11.93334214192806   13.38848290361309    9.07262537416962
C        11.51358044363061   12.01790002286318    8.77156817562759
O        12.20893375965449   11.03161187452050    8.93790786714964
N        10.25210371377061   12.07757396699600    8.21035819658421
C         9.71044151809475   10.99573236342374    7.62453857371456
C        10.08378011744928    9.65029754119205    7.89057891275464
H        10.84538353787276    9.43659119578786    8.62066516047623
C         9.49817800921592    8.62339873358506    7.21163099460560
H         9.77619313071978    7.59971001562214    7.41128736170235
N         8.55766919513191    8.82526767125280    6.27003235619885
C         7.96947346576854    7.72578513769170    5.54027361039897
H         6.89529759819201    7.67814382261622    5.72701445399412
H         8.42148364119432    6.78624237908486    5.84912494519851
H         8.12983144096665    7.85714121188019    4.46926546589725
C         8.17174246846108   10.09022806449689    5.99209264755930
H         7.43222385521390   10.20804136510272    5.21454813434757
C         8.69942294361274   11.16217317284783    6.64086774849935
H         8.40702843238429   12.16311385918308    6.35708140819207
N        11.86260443617104   15.53759206430525    9.08302213302477
C        11.52794159806673   16.89774970837339    8.93370142604250
C        12.06285209972722   17.83718775405735    9.80585583274589
H        12.73052265132139   17.51873651826393   10.59067558734046
C        11.72815359551358   19.16995898116097    9.64773374102034
H        12.13761454107694   19.90713876354886   10.32038380168420
C        10.87331080462147   19.55804472715702    8.62791443228499
H        10.61770111811550   20.59936227151212    8.50788806353380
C        10.35699869401591   18.61391677236889    7.75397187637536
H         9.71023598056717   18.91982725271407    6.94621198686557
C        10.68207033791634   17.27700798252665    7.89831210105197
H        10.31426121584699   16.53522184688686    7.20295803894915
N        13.06583278686887   15.19321979363250    9.50619498042976
N        13.11160305890589   13.89635736346999    9.49348446373222
C        14.28622709482264   13.17611120882994    9.88667916556619
H        15.15980697132270   13.61721615538242    9.40882068027693
H        14.16802113082310   12.13582529164412    9.58699408460247
H        14.41458599897308   13.23305847561428   10.96859544141481
C         7.93036692477722   13.52086283563496   10.18187378382994
C         8.08111499841133   12.68596611213220   11.43226300671633
H         8.72957241582618   13.23174628281995   12.12749025355893
C         8.71898745776903   11.32212966737524   11.16687983454560
H         8.10357303321020   10.71679431200968   10.50477884155654
H         8.83507198498184   10.78397731910190   12.10397222879555
H         9.70322957328476   11.44239608891753   10.71784908918270
C         6.70435080910134   12.52546255304325   12.08795252389276
H         6.26008521816271   13.49759573998276   12.29004449879135
H         6.80255690570951   11.99021062657412   13.02844899791343
H         6.03063742208153   11.96563836012873   11.44315545906752
C         8.31927132698978   14.87501803570738   10.17673479697281
H         8.77502091049111   15.30036539684702   11.06577852601658
C         8.01502876352678   15.72899186394787    9.08501001678806
H         8.24433310481291   16.78621601490920    9.15472577673231
C         7.33517572706200   15.23249101973579    7.95882238114973
C         6.99187300202543   16.11562994147730    6.80164894602870
H         7.13955211115699   17.16342142182708    7.05160736655826
H         5.95870043225625   15.96161312964241    6.49400482096018
H         7.63559052367675   15.86889710689634    5.95339947145779
C         6.93295487461184   13.86631080111454    7.95983927530321
H         6.32453021071809   13.49693365430451    7.14131381563648
C         7.23817181524051   13.03276012351147    9.03808440402974
H         6.86015592711319   12.01613517872870    9.04346869081606

