129
CSD_code = PUPKUI | q = 0 | S = 0 | Stoichiometry = C48H74N2OPScSi2 | MND = 5
Sc        9.25551530249071    8.89563323881973    5.57921207105379
Si       11.02697539091751   11.16113157193034    7.69550698172713
Si       11.89921330802850    7.02710435536641    3.62141893319994
N         8.03200013407170   10.34467137650495    4.24227345786050
N         7.12969302163547    8.12680271669592    5.03603637090708
O         9.47625470400521    6.66103766510976    6.77128457566732
P         6.90262849459776    9.24930967910664    3.90233019757146
C         9.61603094018673    9.90951293005790    7.59911909885581
H         8.70586849442942   10.41318311598994    7.96271424126218
H         9.82637946031040    9.12912233008876    8.34778785693883
C        12.70200629933610   10.27408043470074    7.98357953756165
H        12.70025608472763    9.72471446694198    8.91960850717066
H        13.52259329866901   10.98308753331603    8.02341487079235
H        12.91832904279388    9.56665465929516    7.18928489390744
C        11.13086727723467   12.15230423487394    6.05224717073199
H        10.53519202687967   11.66389328376875    5.27747440268802
H        12.15217300684128   12.22406572638435    5.69165918436445
H        10.75601937846668   13.16523457692954    6.16157527314079
C        10.87008559604064   12.44646236629666    9.11634568470525
H         9.94939857841239   13.01650089679337    9.03439256591022
H        11.69326145556940   13.15460464873110    9.10636147568174
H        10.86889386529580   11.96206988732338   10.08818377751418
C        11.23860640939317    8.58316259581001    4.46194823962826
H        11.31598926053146    9.39866508604660    3.72212606467150
H        11.97449444090453    8.85695286074495    5.23650050216259
C        12.45673127360246    7.34674546075635    1.81078620054568
H        11.73425111876780    7.95668105185147    1.27592918382739
H        12.58834359116295    6.42336136850473    1.25410574325880
H        13.40359818740436    7.87775751690264    1.78815831250880
C        13.44037228863715    6.31532571320523    4.51943880741857
H        14.31186991526021    6.93499494999183    4.33287672768886
H        13.68027216579217    5.30959159206456    4.18698234125252
H        13.29716260431719    6.28278417129426    5.59571194446196
C        10.57019860829951    5.62492858035869    3.57790632839735
H         9.73659442724061    5.86533450281918    4.23913218499040
H        10.98144426632491    4.66948949249192    3.89221422280310
H        10.16372419097353    5.47961012121910    2.58147635488921
C        10.65068838054007    6.38859333185473    7.53206590858404
H        10.43506083434434    6.53383954746363    8.59995961923842
H        11.42380494500271    7.08899801767251    7.21941440772066
C        10.98949904879439    4.92257054672660    7.24977499187465
H        11.63331322508133    4.85291536174710    6.37587935721344
H        11.49261084914955    4.45873545284207    8.09494510524361
C         9.61743253451338    4.29474127271458    6.96002635344456
H         9.32084880025007    3.58121671607939    7.72623322510000
H         9.61914939203468    3.78250362182051    5.99996698482762
C         8.66359311434366    5.49916328037150    6.93995339244795
H         7.93757067727540    5.46906940207059    6.12904660738792
H         8.11902703104375    5.57096897979799    7.89112747583149
C         6.20048070723506    7.22450902218970    5.58427649336370
C         5.73783094110380    7.44375788626755    6.90156272795952
C         4.87073412439626    6.53425537877683    7.48626528623883
H         4.50789961217335    6.71568788299474    8.48739088185357
C         4.44513091582216    5.40653963712188    6.81223122215019
H         3.75974709859564    4.71455684197430    7.27856883920737
C         4.90708689613796    5.18005801156632    5.53231176185279
H         4.57740261483704    4.30084336106786    4.99934834620250
C         5.78367636894150    6.05896786006783    4.91249924290558
C         6.13935213863398    8.66803919307222    7.69367345414149
H         6.86328769312095    9.24735251543686    7.09466937412943
C         4.92507794364991    9.55761176448340    7.97361403293502
H         4.45130114344810    9.86730024714929    7.04465687013536
H         5.23207549465773   10.44868157589591    8.51794698933292
H         4.18690246757505    9.02935032766367    8.57386763386956
C         6.82435240420385    8.28371327825992    9.00843963164499
H         6.16264096176367    7.69520903537122    9.64056665164452
H         7.10862442294421    9.17992086497370    9.55668025020901
H         7.72390414669823    7.70421226103180    8.80856607182004
C         6.25027693807989    5.75022042643845    3.51203683351905
H         7.03854308460639    6.46163473832596    3.25599985872530
C         5.09318982272089    5.92914875514342    2.52708109960387
H         4.30401975850883    5.20814884894213    2.73042220450040
H         5.43927833648148    5.78858959823242    1.50505927856934
H         4.67175781271641    6.92895797292637    2.61395598366955
C         6.84447318008776    4.34613583483757    3.38483015411510
H         7.64736800381320    4.19845416640143    4.10417061955661
H         7.25210808396965    4.21354643692164    2.38462135580453
H         6.09250717440244    3.57807009369125    3.54838177554720
C         7.97670271894367   11.68556889138033    3.80125034938593
C         7.21695074271292   12.63115347155608    4.51914907547325
C         7.19307346599366   13.95133931325614    4.09890241439618
H         6.61488622614132   14.67493930285736    4.65328573833971
C         7.89662456724137   14.36411222366864    2.98481011735363
H         7.85839922508507   15.39500642533347    2.66443367235451
C         8.66157347754968   13.44556967333720    2.29653041862407
H         9.22628250005168   13.76812892545900    1.43437803714624
C         8.71946339330054   12.11574040341638    2.68818168809596
C         9.59217208267467   11.16848797136136    1.89930319239103
H         9.53739567130341   10.18408946848372    2.37512050324249
C         9.09572326455356   11.03544847755502    0.45795415114814
H         8.05223008466636   10.72829710463608    0.43718634731427
H         9.68081472883815   10.28798188714035   -0.07432775632430
H         9.18428034351210   11.98147944716489   -0.07140086704479
C        11.05422126381847   11.62210928771110    1.91761791528942
H        11.17777527871525   12.56262626985762    1.38588263996876
H        11.68299559367821   10.87421587609735    1.43794039309481
H        11.39607263371672   11.76182369618217    2.94077721923497
C         6.49362488133983   12.25455943693309    5.78984058564953
H         6.43766445144019   11.15970796146149    5.83765833773902
C         7.31590764700464   12.75488799297480    6.98115212700797
H         8.33584901301561   12.38464771181478    6.91224075544679
H         6.87541425578174   12.42111275642723    7.91902328753906
H         7.34499188263933   13.84303697624589    6.98401194307653
C         5.07085452249102   12.80863519713709    5.87072093614489
H         5.07603003025430   13.89143621153077    5.97006583817989
H         4.56330398511825   12.39784898877769    6.74117795547135
H         4.49800875727362   12.54830504096305    4.98475898812780
C         5.20946832547821    9.91872722424751    3.72981374955335
C         5.03031160701095   10.99737731067019    2.86687410723018
H         5.88607247580050   11.42212341916778    2.36118064834284
C         3.76715136874443   11.52158896521357    2.66189803587788
H         3.63565475392669   12.35954848293012    1.99271614773456
C         2.67377253423200   10.97089491225589    3.31269731762093
H         1.68701415994266   11.37934051932967    3.15112809676742
C         2.84776101344729    9.89473345754203    4.16648154162396
H         1.99670111518704    9.45871100481219    4.66924101914188
C         4.11070477567851    9.36605267455864    4.37378150347067
H         4.24073327534306    8.51295668165578    5.02267540481595
C         7.18743246235618    8.60044402148117    2.18927775140613
C         6.29797302149960    8.68026059129561    1.12659257671214
H         5.33370602230332    9.15059448714930    1.25429842528241
C         6.63746557753398    8.15120707259848   -0.10797859046116
H         5.93747499231466    8.22109659997167   -0.92826422029437
C         7.86106171663905    7.53227095369675   -0.29099727648606
H         8.11976037443922    7.11817748354091   -1.25452128176716
C         8.75241525247996    7.44285454538416    0.76724562280641
H         9.70600858866190    6.95537750056609    0.63028826699789
C         8.41752551261968    7.97642252988041    1.99661981975878
H         9.10632735226569    7.90438706384741    2.84153268815477

