75
CSD_code = PUPKAO | q = 0 | S = 0 | Stoichiometry = C34H34FeN2OP2S | MND = 6
C        -0.04330570621976   -0.27754091399561   10.36651111585037
C         0.42246905888651   -1.59251325860672   10.43096685346748
C         0.55543197216096   -2.36156462377840    9.29572189237399
C         0.24009684034737   -1.81239665832346    8.06206815078537
C        -0.24752803399343   -0.52280087816002    7.99571349087896
C        -0.43481028138097    0.26427717477247    9.13579392221653
C        -0.56778384337094    2.72167836312996    9.71232418569883
C        -0.99461511647840    1.61430303299881    8.95918756752008
C        -1.94326398589016    1.78290040918175    7.95065818444784
C        -2.41024807407596    3.03822576044395    7.60091789599632
C        -1.88474518924095    4.15267292116288    8.21692384503016
C        -0.97656684001742    3.99357173067586    9.26516893891114
C        -0.34494026319764    5.11653668328300    9.93596656824194
C        -0.48970141845608    6.43617217663498    9.52073848677317
C         0.20188896923972    7.43892820503904   10.17385551643681
C         1.02294513884380    7.09918495236795   11.22409915138851
C         1.12309435906946    5.75652915693435   11.60760064298136
C         1.07490654149868    2.74164296333117   13.02175898688973
C        -1.94310049114409    2.55002291547279   13.92888758894979
C        -3.07653106673577    2.10570924827075   11.43043332753807
C        -2.28446417861857    4.73488785883029   12.19563429458421
C        -3.27313816078243    5.21607015492505   11.34699202277932
C        -3.61132859589424    6.55827596469038   11.36414242604539
C        -2.96273344823965    7.43161859309499   12.21939644905759
C        -1.96866120838393    6.96033447057156   13.06239473074991
C        -1.62816784440871    5.62258489677022   13.04450694391442
C         3.13058321530095    0.84434863455285   10.92723177764441
C         2.28358219426790    2.09139116323065    8.57534767925480
C         3.43039678708327    3.64886126981058   10.60014154288667
C         3.37265612659603    4.77234475868316    9.77989177142540
H         2.64859633252811    4.81219851128757    8.97844973483774
C         4.22768126227849    5.83901317822207    9.98646909538310
H         4.17324556782166    6.70430953950507    9.34170020681985
C         5.14843718254241    5.80105071529766   11.02092367816453
H         5.81853702630882    6.63299299296739   11.18111908728130
C         5.20491732579530    4.69337423775355   11.85109469625921
H         5.91908784312462    4.66131783200853   12.66141065993739
C         4.34558911410455    3.62799285281995   11.64836354374484
H         4.38476612498228    2.77552288378966   12.31104091471482
N         0.45975156820457    4.78139075078995   10.97078187052288
N         1.86539669617109    5.44297402806575   12.70434084547173
O         1.50118844787264    2.52056383293255   14.07157957605683
P        -1.67654567593206    3.01460366945267   12.17593760075977
P         2.19003448406002    2.32344480483600   10.39338462764599
S        -0.11354344438826    0.58617345050340   11.88497465148101
Fe        0.35356206437609    2.79340238109696   11.42377044249929
H         2.57172953866769    6.10040829012110   12.98703019741327
H         0.68276864973369   -1.98902623542210   11.40114190146638
H         2.08820129526790    4.46659898056907   12.81892812076612
H         0.92063794368681   -3.37577933390714    9.36713050623285
H         0.37263722757907   -2.38697466288108    7.15679556236385
H        -0.47365360268981   -0.09947992757176    7.02676135991770
H        -2.34630576994442    0.91531486546498    7.44717117127640
H        -3.16255986847388    3.14107323266270    6.83157497282827
H        -2.20870864824438    5.13490213531649    7.90644757982305
H        -1.13261872180390    6.67717405240249    8.69187295730473
H         0.10395647991890    8.46799222171823    9.86232197944450
H         1.58729850487921    7.84163269524913   11.76571696009525
H        -2.97302425242187    2.75703813683824   14.22213708485847
H        -1.25979723252200    3.10034261125212   14.57252051384067
H        -1.73195183666176    1.48457598424585   14.02501958572470
H        -3.99235643637896    2.36187792599870   11.96585819561650
H        -2.87041763145857    1.04000507861440   11.53657045630453
H        -3.17830737210115    2.33808341056718   10.37246210182178
H        -3.77696379399752    4.54865324952259   10.66400589036299
H        -4.38245826209255    6.92479879384979   10.70159529776080
H        -3.22638784554467    8.47912125505401   12.22593550250127
H        -1.45412409751688    7.64033524179202   13.72586870061541
H        -0.83433383910827    5.25221041973507   13.67964216116109
H         2.61424578938678   -0.03674732575844   10.54548807429325
H         3.13712034937794    0.78423336738418   12.01472529485496
H         4.14860805620769    0.87579084056458   10.53693583932252
H         1.83747597291799    1.12914344820159    8.32707247088147
H         3.32624370702569    2.10964718843892    8.25494066885378
H         1.72012631979289    2.87177127269149    8.06711171003118

