75
CSD_code = PUPKES | q = 0 | S = 0 | Stoichiometry = C34H34FeN2OP2S | MND = 6
C         8.80659589011882    8.35209295215729    6.25245576349580
C         9.30300416963875    9.61214612507100    5.91133825750606
C         9.79980762567801   10.47252476508831    6.86544760680020
C         9.82702286526213   10.07084152677935    8.19213287548497
C         9.31367322677816    8.83772929368242    8.53930754592404
C         8.76095575466444    7.96325088269300    7.59853948980611
C         8.33825307524074    5.48800344709212    7.35851085199624
C         8.22205035032313    6.68274349193884    8.08622322822649
C         7.63829506864217    6.66432222586654    9.35439040827749
C         7.26537825465780    5.47868384777223    9.96399189751289
C         7.51868686070770    4.27912706254445    9.33328781985916
C         8.03799712237183    4.29068433322903    8.03998140025458
C         8.36472435272600    3.09190408017327    7.29214146995506
C         8.30677432212143    1.78664654556659    7.78025069261738
C         8.70995582513786    0.73204110600100    6.99478755453739
C         9.17952393970938    0.99204552343895    5.70370159601011
C         9.19259924848249    2.31758223603152    5.28360275025767
C         8.91987224810770    4.85529711466070    3.76723422344175
C         5.76227180653281    5.45809580828182    3.74773193522541
C         5.47501960397419    6.22231184723301    6.40535759938386
C         5.82293560135656    3.47075256435665    5.74197419414452
C         5.14350778461657    3.15776268408965    6.91281042858751
C         4.74970699385208    1.85445254789234    7.16156026335708
C         5.03817926840859    0.85145797059725    6.25261089185486
C         5.72287059421000    1.15348547621780    5.08613365811018
C         6.11690153159208    2.45309087251660    4.83752099241051
C        11.59129116682608    6.86094964640484    4.80123859062468
C        11.45814341432091    5.98675375018389    7.45374227281574
C        11.75380657082883    4.08525322837582    5.39315667194949
C        11.94707747853143    3.09043156034158    6.34736497371412
C        12.56546743448244    1.90112872527842    6.00838866784896
C        12.98711850080187    1.68356933485633    4.70708375062067
C        12.78531184814445    2.66142885318255    3.74654977458033
C        12.16621554069370    3.85095479852263    4.08511038566528
N         8.80396029663634    3.33684013885719    6.04125177802463
N         9.54628142021565   -0.02114795251348    4.84601058082834
O         9.07704821874539    4.67207226481152    2.64154896560348
P         6.51520638518514    5.12095252074710    5.38414794487285
P        10.77330708762518    5.56692569530836    5.80505469598052
S         8.26240907060776    7.36941670197272    4.90877204032524
Fe        8.68256448700066    5.18400240549985    5.46861797225453
H         9.80632285187072   -0.89442378641599    5.27546593920659
H         9.29199244446658    9.89134864856184    4.86816923940527
H        10.12394477310029    0.25029710069279    4.06652472950364
H        10.18168039856796   11.44119275619850    6.57719585802285
H        10.24645651473552   10.71468419429920    8.95169532788915
H         9.36057527112200    8.52792980582523    9.57399818893173
H         7.44700485581319    7.59649835906218    9.86738694455568
H         6.80103801226622    5.49628172422553   10.94011720570251
H         7.28241691869806    3.34756324555110    9.82722838271390
H         7.94906720182740    1.60492291304428    8.78077904515454
H         8.67065103922535   -0.28255978552031    7.36296953087907
H         9.54455109989096    2.55623782036423    4.29034261097838
H         6.19374900861793    4.80419073822417    2.99271851015448
H         5.99243213145707    6.49147000325214    3.48657423244456
H         4.68232444620370    5.31125298076880    3.79095184746808
H         5.71016759453439    7.24934901363149    6.12320570302024
H         5.68800008905840    6.09338821273638    7.46447711113215
H         4.42440856179027    6.01047401478967    6.19933117135651
H         4.92713791994074    3.92772349597295    7.63815400126950
H         4.22001382070661    1.62015142207986    8.07400865813727
H         4.73468573253816   -0.16551508200851    6.45391431893458
H         5.95871021248169    0.37225508053437    4.37816066137945
H         6.67128233662831    2.69242385495265    3.93976020318175
H        11.24660805239678    6.79677723664143    3.77021625454608
H        12.67597068771456    6.75623832824713    4.85243225204977
H        11.29053387083602    7.83141531855656    5.19746691568861
H        12.54494151999956    5.89286869079072    7.43856476984921
H        11.03256536555441    5.33546121536717    8.21519344966467
H        11.17822357377282    7.01357882960475    7.68742784012957
H        11.60397632098448    3.24606262127972    7.36045811461260
H        12.71378418344517    1.13866915798202    6.76014765965831
H        13.46981465906057    0.75388495465615    4.44135637917945
H        13.10740132593203    2.49305248633973    2.72875992418925
H        11.99569489901582    4.60134642700065    3.32728255850806

