129
CSD_code = PUPLAP | q = 0 | S = 0 | Stoichiometry = C48H74N2OPSi2Y | MND = 5
Y         9.47112760311476    8.99849290584205    5.54394225078709
N         7.98622176703489   10.47484431087540    4.14447428703193
N         7.13858172651600    8.21541185420941    4.94274905340367
O         9.50102868739803    6.57364965687848    6.95922207127251
P         6.89289452324602    9.34080675277502    3.82437350972415
Si       11.32930974061954   11.31671725817287    7.57216359770099
Si       12.02598242860411    6.99196107274646    3.74694204843883
C        10.01796208880924    9.96194811777967    7.64905805500915
H         9.10118493713403   10.37769724557362    8.08046961666060
H        10.35277644561523    9.19014284922486    8.35158094056510
C        11.25153678207344   12.21816301358898    5.87734608652465
H        11.90828053458121   11.73686646691411    5.15715567360471
H        11.56615430132839   13.25459831058157    5.95737738948518
H        10.24416091552633   12.21816680598327    5.46017297389235
C        11.16524804607024   12.65552284918563    8.93648623601454
H        10.22916052334297   13.19704936357210    8.84082083930366
H        11.97059610501092   13.38157721594743    8.88528117605354
H        11.18693132208811   12.21205011161801    9.92698230663330
C        13.06837402488000   10.53054263433689    7.75123282165590
H        13.23893509846780   10.18135116575876    8.76440652943691
H        13.85172088000745   11.24335529817094    7.51550418607082
H        13.18461104689066    9.67965175223688    7.08583702402814
C        11.48088095011485    8.71364983539839    4.28232067389570
H        11.36470607766475    9.33457735267983    3.38472092332128
H        12.30628174304912    9.16864387147652    4.84428476620187
C        12.78630437811478    6.93122156479607    1.98550717540048
H        12.12020352072433    7.37958771037012    1.25430637127071
H        12.98865752245631    5.91357280185279    1.66504403370662
H        13.72215221850070    7.47968469679889    1.94653775848634
C        13.38134718904873    6.32699329685940    4.92971863816889
H        14.33406653910116    6.79895890006137    4.71304428077824
H        13.52142863484807    5.25520908293831    4.82809773839640
H        13.14830570181674    6.53742604946355    5.96884323989673
C        10.55788371133923    5.74664709834452    3.72814229295589
H         9.79035928055210    6.02501072994611    4.45063181357934
H        10.88798639345891    4.73817628796768    3.96252829136377
H        10.08728323589370    5.70430422792215    2.75029762069767
C        10.62404730923928    6.24934907014021    7.77248372771535
H        10.35441945640414    6.36857250330691    8.83219271432822
H        11.43240610310271    6.93752304566964    7.52063232869858
C        10.93888690077235    4.78272365091513    7.46186146049798
H        11.62951051175269    4.72205136449325    6.62337483547171
H        11.38097909650242    4.27809802429350    8.31778579695437
C         9.56768416086448    4.20445656062900    7.07608605841264
H         9.60655329268365    3.73012993935817    6.09743362293942
H         9.21292327436545    3.47035793638373    7.79662351992676
C         8.64728793750436    5.43521225177609    7.05364890240148
H         7.95821738038061    5.45393720878028    6.21029496816889
H         8.06338690642283    5.49439240547551    7.98214818829977
C         6.26384374741185    7.28245043702437    5.51400115551551
C         5.88440696491918    6.09761970431768    4.85401915717193
C         5.06706219737602    5.18070850334867    5.49841517396681
H         4.76204747933727    4.28618507078342    4.97630473425240
C         4.63506697892539    5.38822952595948    6.79253299465326
H         3.99909533305684    4.66454703259043    7.28044983722716
C         5.02329679434502    6.53770628560899    7.45261394457286
H         4.68230360783650    6.70242472706009    8.46441646074568
C         5.82470698798823    7.48852076494566    6.84055661778112
C         6.18252473872963    8.73878603819588    7.61269128300624
H         6.81764608327116    9.37244294917889    6.97753538055187
C         4.92492249506314    9.53512796248810    7.97113777787258
H         4.37653545237729    9.81126723326442    7.07304754067660
H         5.19695608094163   10.44526747598049    8.50211478282549
H         4.26406063812015    8.95406419067345    8.61065227889424
C         6.97477124307581    8.39799234446945    8.87791872107219
H         6.40273849950052    7.74384081140905    9.53284826069966
H         7.21036493331858    9.30678505127857    9.42870981522034
H         7.90794365309405    7.90298678700184    8.61510567201221
C         6.32911344709653    5.81766072082708    3.44067872900630
H         7.09315063728758    6.55301524227993    3.17835064950047
C         5.14781368680658    5.98204431474292    2.48233549154413
H         4.37726015191305    5.24417228406160    2.69665644698346
H         5.47440444444914    5.85698934107962    1.45181123720457
H         4.70997372922953    6.97305596653425    2.58718386499370
C         6.95634350456186    4.43147409987949    3.28395975911096
H         7.77087531040235    4.29490684300738    3.99213637966511
H         7.35541811492950    4.32415812354508    2.27715065039073
H         6.22589335303388    3.64203545362614    3.44343285316083
C         7.19299640663213    8.70695380289386    2.10583095290006
C         6.30493030264018    8.77463471680855    1.04166890269655
H         5.32673425925200    9.21397584443045    1.17525760139797
C         6.66434431335214    8.27338688177273   -0.19889207432202
H         5.96468033928400    8.33176846554584   -1.02042544659805
C         7.90846814912536    7.69845248466346   -0.38882534285137
H         8.18298536990224    7.30877950184694   -1.35814714786901
C         8.79954614919773    7.62145649714993    0.67051750196681
H         9.77072919424418    7.16850088143803    0.53130630261911
C         8.44173701409794    8.12328112177350    1.90636213785133
H         9.12824712079795    8.05381507603220    2.74751973157734
C         5.18452992254428    9.97609271438351    3.66961073248918
C         4.10946003210532    9.39574110066609    4.32885027260893
H         4.26856538509165    8.53294238008547    4.95851393086356
C         2.83574459330865    9.91268601648390    4.16362173449446
H         2.00211800278826    9.45612020954575    4.67750141791615
C         2.62866922728701   11.00556921577748    3.33882942300963
H         1.63358562308479   11.40615016913127    3.21169554094869
C         3.69890438243116   11.58375248053336    2.67377748237336
H         3.54062025102590   12.43498995679247    2.02727037199935
C         4.97276300330743   11.07092583034030    2.83591971979192
H         5.81146910154654   11.51757046018651    2.32046789841664
C         7.90995245971228   11.82522224161021    3.75932852083110
C         8.64283459090987   12.30527997922380    2.65978472971085
C         8.58797764984085   13.65270839759134    2.33584021355784
H         9.14461673667178   14.01652709582577    1.48481466046544
C         7.83544612495710   14.53830251752329    3.08012856264940
H         7.80278633465319   15.58499660670283    2.81520178734563
C         7.13286137203329   14.07330746118697    4.17471574393176
H         6.56022809674727   14.77035573017406    4.76736966214765
C         7.15213677895212   12.73313208911478    4.52589177764665
C         6.42017109873589   12.27730009996514    5.76510833091131
H         6.31063000361936   11.18698221945670    5.71299636850734
C         5.02305245845666   12.88229769805301    5.90046555153628
H         5.07356188260532   13.94367673718256    6.13132874662249
H         4.48416943137943   12.39104034578513    6.70807638021018
H         4.45530547357774   12.75421303242236    4.98210456215545
C         7.26789809178926   12.62180607382763    6.99323862322020
H         8.25132258923441   12.16179231870155    6.91439289290230
H         6.78511428449131   12.27039275314575    7.90311569543621
H         7.39949193305558   13.69983845899284    7.06690729532114
C         9.48985405121608   11.38250372150532    1.81650567517128
H         9.43967323217818   10.38202932584464    2.25771365297287
C         8.95003178776325   11.30224773980800    0.38697962815080
H         7.90745025500413   10.99081394911732    0.38788771132699
H         9.52004887336332   10.57724857586399   -0.19091190805866
H         9.01906057876026   12.26845150377876   -0.10777003007049
C        10.95506609793076   11.82327097430536    1.81242925363081
H        11.07258787048083   12.78699013544579    1.32264647894952
H        11.56314981342075   11.09431703715960    1.27939333934880
H        11.32522266196807   11.90960960717123    2.83144638369125

