63
CSD_code = PUPVON | q = 0 | S = 0 | Stoichiometry = C28H28ClN5Ru | MND = 9
Ru        5.71140281139821    3.79286013738370    2.65065963034006
Cl        4.73016664842368    5.87850946364204    3.06362554020726
N         3.93601970456964    4.53192137659955   -1.28389530570897
N         4.75791128192160    3.94651505521319    0.83652422261713
N         1.17994556032324    3.04361733589320    0.40963167542439
N         1.60375402948277    3.95393106036680   -1.58300489644842
N         3.75958466291167    3.11070263615138    2.55952034161407
C         4.87879487213835    4.47032423383992   -0.37533095932832
H         5.84562169881349    4.87491365759401   -0.64977941883783
C         3.55986687010912    3.44679408485478    1.29917191055850
C         0.70145010596740    3.34877229855577   -0.75974066616831
H        -0.30877744012953    3.15432304018434   -1.06140526446707
C         2.76242904207782    4.02213262125198   -0.87528047764853
C         2.48355868429755    3.45816071430128    0.38340175686116
C         1.42159663445913    4.36932480556990   -2.95329296387576
H         2.12177466450747    5.18949999029711   -3.13440873922808
H         0.39557801058342    4.72512078446431   -3.07756999164550
C         1.70916350949928    3.22299444945413   -3.89191430091620
C         0.68564890138098    2.57201308676661   -4.56475903075408
H        -0.33528616710120    2.90632391201281   -4.44486844053521
C         0.96721146770990    1.50039082827198   -5.39514464495620
H         0.16523510077369    1.00182865739774   -5.91919364028549
C         2.27253835367396    1.06758290428823   -5.55021203667409
H         2.49116363224915    0.23009015790171   -6.19602674311508
C         3.29750310506722    1.71081172813270   -4.87573590273625
H         4.31713980147580    1.37533881355364   -4.99544595330554
C         3.01852855248517    2.78502368949659   -4.05064694690051
H         3.81120320563548    3.29279981225054   -3.52048627195324
C         2.88038001208084    2.60529998844191    3.49244947808100
C         1.76856320445011    1.82690610914424    3.16411192892616
H         1.52710089312568    1.64558287009776    2.13007196920313
C         0.97084716222613    1.31798269323379    4.17129127287145
H         0.11076194469815    0.71871120819420    3.91006275596858
C         1.26013491956103    1.56577304023237    5.50312905505042
H         0.62975716666247    1.16105096162331    6.28103396016474
C         2.35833672789073    2.34558723039747    5.83169976656980
H         2.58186731233883    2.55690774459603    6.86755946739412
C         3.16507394014888    2.85800806088412    4.83741755522320
H         4.01116477736648    3.49236426186846    5.07106106921629
C         6.59407526895202    2.15351460393194    3.88302282109098
H         6.12609331030532    1.33786943093936    4.42378363285147
C         6.85750792589300    3.36199011590321    4.56799555637829
H         6.60469193736799    3.45327010158507    5.61864154678343
C         7.53107038711976    4.42594055245536    3.91848525927804
C         7.93729346356516    4.25281918356723    2.57649937525239
H         8.50543334356689    5.03197662253358    2.08136643125886
C         7.66732482863816    3.03761426571262    1.90325495190519
H         8.04066397249974    2.90164040256495    0.89226658393686
C         7.03479298077032    1.94976086155512    2.55241137380056
C         6.88177534023635    0.61340884305385    1.86409469968165
H         7.30778842242829    0.69923863556188    0.85708625709455
C         7.66028442956901   -0.46680842410776    2.62134415427113
H         7.23576844580697   -0.63049017252946    3.60884123815422
H         8.70286850187085   -0.17707764079258    2.73678588836709
H         7.62168858354849   -1.40527205446911    2.07366537213716
C         5.40709011744482    0.22953879496046    1.72328926873085
H         4.93384326320756    0.12506230252213    2.69695361684908
H         5.31372844364835   -0.71492709354944    1.19206607344895
H         4.87166611402739    0.99539108517890    1.16334546858717
C         7.79259999410482    5.71157733698529    4.63886240025012
H         7.91733863972275    5.54414225127069    5.70663357500973
H         6.93273246678905    6.37218978036327    4.49440333235597
H         8.67446445364554    6.21073471038285    4.24332036172769

