38
CSD_code = PUPWOM | q = 0 | S = 0 | Stoichiometry = C11H16Cl2N4O4Pt | MND = 4
Pt        5.88922783632819    4.29088651586938    2.02677446657990
Cl        8.02837259992637    3.74487600417558    1.65194753665772
Cl        5.33494432358621    2.12436255880688    2.07469635200730
O         2.37587178005903    1.74443541874936    2.99517885504701
O         2.95292798495527    3.99255856549848   -0.88790774598576
O         7.66161413781058    8.96536550417319    0.06081403496726
O         8.27557080897262    8.35298668470450    4.48346026267046
N         3.86481967843747    4.98712182005417    2.38728768093376
N         2.67446890923941    2.85905627180483    1.04782556564302
N         6.41345694506434    6.35737175181432    2.16372564635121
N         7.97399307715463    8.62477038961168    2.26680108935567
C         3.10864449756078    4.01483818288372    3.17729073045268
C         2.75614115021977    2.73164794704181    2.42851665580919
C         2.94745304722217    3.97481586767312    0.31438633849723
C         3.12574175170323    5.23918884064744    1.15081489409172
C         4.13010631494707    6.22785568708475    3.16229042614703
C         5.17104792361083    7.10026248740398    2.43804025707731
C         7.07115117992379    6.80094400347564    0.93325502270822
C         7.58491326953996    8.22402534885655    1.00299695332278
C         7.91462943780242    7.89025717325868    3.43428819158149
C         7.36683840943752    6.48650660617050    3.26963944476203
C         2.89628100203808    7.08154456702901    3.46705065888262
H         2.53510280623371    1.99337880094608    0.53587305616612
H         8.35544373497624    9.56410945500281    2.34422441834702
H         2.14416387962237    4.43364964568595    3.50206648701745
H         3.67520817167518    3.72296912696009    4.06517608558229
H         3.64024584839955    5.96571604679910    0.52081030436388
H         2.11386120498977    5.61449085789561    1.36639899961189
H         4.55841075560296    5.89136763308113    4.11509384451119
H         4.75366494998368    7.45623371671306    1.49362026114080
H         5.37263936892090    7.98316635675265    3.05595728120560
H         6.39908429580942    6.70640388258801    0.07619147972775
H         7.92370442859032    6.12943041145575    0.75243855664913
H         8.20814485987725    5.80508915009922    3.07285875925081
H         6.91254540726722    6.17779998900234    4.21459229224443
H         2.50028573837011    7.54801958423631    2.56865001768789
H         3.17663805985642    7.87202020284128    4.15831571367713
H         2.11024042428447    6.50037694315248    3.93985912525620

