68
CSD_code = PUPYUW | q = 0 | S = 0 | Stoichiometry = C22H40BIrN2P2 | MND = 5
Ir       -0.20637267070826    2.70145848434852    4.71090320716441
P         1.36231669385935    3.28690177175525    6.28191549028046
P        -1.50286032189346    3.21616744737102    2.88744784060056
C        -0.51861757924491    0.96631768826048    5.92727526232835
H         0.32148564429879    0.27934865822222    5.91031922749399
H        -0.89438231179683    1.15547550967031    6.92706295245230
C        -1.42359763971441    0.94498157535157    4.85794324167711
H        -2.47525776412424    1.11828311750923    5.05916034180440
H        -1.25446613267915    0.24205886507175    4.04845066681481
N         1.87479048924848    5.00433400538112    4.38900369975392
B         0.72232339402389    4.31938935313643    3.89499756925358
N         0.41202020849869    4.97282613502777    2.66306680493809
C         1.31899056133775    5.97378632942437    2.42802869251119
C         1.44413358891093    6.87368151345290    1.38564951520122
H         0.75163108553856    6.86354886485747    0.55582339013675
C         2.48472503472291    7.79169629690178    1.42948877390343
H         2.59778654295050    8.50257631810945    0.62367449570315
C         3.38136917452247    7.81045402145335    2.48642740468948
H         4.18235697212583    8.53562721731532    2.49135129075662
C         3.27069569345038    6.91216856738142    3.53919437607368
H         3.97642210591223    6.93131888298695    4.35764622075052
C         2.23774346224407    5.99329513146191    3.51160233785097
C         2.53432401894579    4.59102035554800    5.58986333353495
H         2.68599620174413    5.42437195578367    6.28919044340411
H         3.51640645899861    4.15265351689200    5.36523292897074
C         0.77870297767521    4.22130571819523    7.79794309122889
H         1.65653800550269    4.65554987741134    8.29072281215640
C        -0.13798353244007    5.34126991590706    7.31820692467379
H        -1.00341878062793    4.90922933604137    6.81987144264511
H         0.36679996185970    5.98763697238050    6.60443704750566
H        -0.48124808873419    5.94666051641121    8.15600947255125
C         0.03850323607068    3.32545769469045    8.78285612875024
H        -0.27263784208509    3.90091436043932    9.65433291075515
H         0.66213457770074    2.50230744900269    9.12449328416663
H        -0.85290996998275    2.91490766999055    8.31517840804093
C         2.57037298578985    2.04756825742112    7.00618073991433
H         1.94828824575161    1.31668144082424    7.53614222011575
C         3.59692012045504    2.61660830891518    7.97985823806838
H         4.29691372219355    1.83390499836855    8.27135362745000
H         3.12446689762372    2.99419763305304    8.88306038476246
H         4.16646640974599    3.42268965485621    7.52297447235557
C         3.25080613179013    1.33075542960604    5.84175859199663
H         3.98869231275242    1.97305740556428    5.36630048114334
H         2.51302920311373    1.05401932846092    5.08948817069768
H         3.75800912721417    0.42986283235271    6.18434667874960
C        -0.65619386419208    4.52270579305825    1.82402162229967
H        -0.26501416874723    4.07855546458177    0.89839225632284
H        -1.33922991483452    5.33736479190076    1.54775467012565
C        -3.12329743789553    4.11140700161402    3.18031019107795
H        -3.46228103634240    4.52449624248295    2.22295169279102
C        -2.84221677405420    5.25183854286661    4.15253680020534
H        -3.74038441531706    5.84242615455974    4.32781087640790
H        -2.06050309095054    5.90788157732032    3.77730960664108
H        -2.50309705923018    4.84014146010063    5.10097013104831
C        -4.20268944607344    3.19680267194769    3.74500845684781
H        -3.89285195928981    2.80684224647274    4.71129393590962
H        -4.40762593335911    2.35922524423015    3.08201508156581
H        -5.12921497898094    3.75244049035211    3.88738165991062
C        -1.97206757118812    1.93547177684587    1.59937442012027
H        -2.58410401447433    1.20055851142169    2.13545818592161
C        -2.76499605879890    2.45770748823829    0.40593609330288
H        -2.23562010435149    3.26543771457114   -0.09422269667321
H        -3.74560717845016    2.81889131400791    0.70505920443567
H        -2.91077920250431    1.65423557595750   -0.31571711301568
C        -0.68836922736931    1.24104928122597    1.14953888892841
H        -0.91348626149020    0.32478128506375    0.60546415986225
H        -0.07348145896414    0.99408685822435    2.01423541645870
H        -0.10419745569514    1.88612613039301    0.49708182373135

