52
CSD_code = PUPYAC | q = 0 | S = 0 | Stoichiometry = C19H28ClN2PPd | MND = 4
C         5.55110976988206    1.74833043591950    9.38902914717757
C         4.26126220233821    2.27102868556671    9.55979453299367
C         3.43163943371075    1.79146666253379   10.56507419831834
H         2.43622045537356    2.17076000402102   10.71341531493839
C         3.89657714232684    0.78827314533537   11.40028489620091
H         3.25072361153254    0.41025357101460   12.17867659033454
C         5.17255554711245    0.27222095181751   11.25391682973184
H         5.51975738607269   -0.50349434468743   11.92245710318255
C         6.00288626035201    0.75203301694463   10.24912657702221
C         2.82962059756075    4.07447422894836    8.45817565676162
C         3.11038718621706    4.90598533017619    7.39031582376831
H         2.46509932660607    5.65201946861755    6.97428915168251
C         4.39907525366027    4.57399593566862    6.97156015262073
H         4.98796583686107    4.98388587946603    6.17193188890602
C         7.41823255534936    0.26676950529491   10.07485598769896
H         7.49155945307646   -0.82097859129546   10.14943604560700
H         8.03364225786009    0.69012975381936   10.87405468637774
C         9.75977441775219    1.55840741260594    8.80777713833138
C         9.45277618719252    2.89028830872036    9.50655650669369
H        10.37277767209642    3.43657594485470    9.70791870473995
H         8.93253421042247    2.73702549509770   10.45338704683093
H         8.81768751565936    3.51114494716578    8.85434394080292
C        10.47693675061052    1.85164696018049    7.49189533599144
H        11.33178648403769    2.50182685299489    7.67258710010451
H         9.80177455951045    2.35914428270890    6.80168918807062
H        10.84375707152177    0.93781802013650    7.03095418748346
C        10.61487936857433    0.65725774554363    9.69493069468904
H        10.78566712539576   -0.30853424009537    9.22659328248300
H        10.16031121815781    0.49128537187452   10.66871570337262
H        11.58340209393560    1.12923941742906    9.85601495972756
C         7.93003587501170   -0.57918785986943    7.28898096453683
C         8.75359724297217   -1.78843196728089    7.71885182915198
H         8.52797895986894   -2.63151235203259    7.06691314209790
H         8.53493938807385   -2.08815239428966    8.74163938473238
H         9.81777313222904   -1.57993221510512    7.63775588895770
C         8.31697459165898   -0.13495831390524    5.87817051059724
H         9.39276649511717   -0.04863749101682    5.76164941561422
H         7.86544354955689    0.83465801361145    5.65268274758345
H         7.95735520319151   -0.85958693324591    5.14885046878911
C         6.42994347134295   -0.90169074407853    7.28298081625690
H         5.86382749485895    0.00083169278603    6.99784298608661
H         6.07928062216255   -1.23826835168904    8.25725924816828
H         6.21597437516747   -1.68292071984545    6.55495926519005
C         1.57668157754737    4.03888802638334    9.25474702221625
H         1.08936870400748    3.06692883241693    9.18018366352473
H         0.89646898832005    4.79330403896328    8.86683313303340
H         1.77057861414164    4.25820503755425   10.30445994603545
N         4.87024223006978    3.60702623744934    7.73328556857465
N         3.92340772715541    3.29183013991571    8.64126118155686
P         8.03769105544226    0.90543532064272    8.43927948495951
Cl        7.55812277574590    3.41965502425381    6.01863854685269
Pd        6.56946897559718    2.44453682000392    7.85381641283650

