27
CSD_code = PUQDAG | q = -1 | S = 0 | Stoichiometry = C8H8CuS10(1-) | MND = 4
Cu        2.41609708748578    2.50472768817330   -2.44047655555299
S         2.65176797047232    2.71613772205053   -0.26226031822496
S         1.42605207633297    4.43946129279392   -2.74068196541171
S         1.92538199219185    4.93501234711892    1.55911304608299
S         0.33115264277709    6.38429944697576   -0.78587760870896
S         2.41040237210415    7.91763752537826    0.85826861931599
S         4.24043188720996    1.30200744377025   -2.69675999987820
S         1.30451332668357    1.56518699823918   -4.08385831651448
S         4.85026359374344   -0.92050520910068   -4.55865424408846
S         2.17774783607557   -0.33703223610735   -6.18568510944666
S         2.81242574818694   -3.16789903587214   -5.20661801387336
C         1.87571699347095    4.24782706686899   -0.07353630591190
C         1.26302083141309    4.90045432740720   -1.08409153441283
C         3.11235641774581    6.29086674375664    1.26194580664239
C         1.70131907306025    7.58284821575343   -0.78217138344370
C         3.73199510772692    0.35704023794231   -4.05018872376939
C         2.56330673833194    0.55351665731918   -4.69663597093093
C         3.89893320251797   -2.37116324048427   -3.98725343433414
C         1.55477374642470   -1.87496659800150   -5.43718530189238
H         3.65489017141150    6.43547294278083    2.19247157514817
H         3.78608323784348    5.98444195225960    0.46446570605475
H         2.48016720456530    7.22041192826335   -1.45003241923164
H         1.30202672772210    8.53226287925164   -1.12825587896977
H         4.62729904004676   -3.12984689631699   -3.71342204323119
H         3.30847904105811   -2.07184031744411   -3.12377252231388
H         1.09859919501035   -1.63356372045530   -4.47920531577177
H         0.82359673838678   -2.29609616232132   -6.12174178732955

