91
CSD_code = PUQFIR | q = 1 | S = 0 | Stoichiometry = C40H36CoN6O8(1+) | MND = 6
Co        8.09812918935630    5.44709055790879    8.70451560908194
N        10.01791608974249    6.39374509216101    7.04770381755280
N         8.72022908215880    6.61953457580389    7.35053737692988
N         8.61563356387749    6.75943776353370   10.08735891545892
O        12.12144395606779    6.28121623460411    5.46754206760158
H        11.18905484855136    6.47032074266990    5.71086863293116
O         9.86669360386316    4.82691694324937    8.66763609920243
O        11.47813499678290   10.23919068027709    4.38733338611642
O         9.53756368415233   11.40812433091060    3.00569960957331
H        10.50230105725239   11.49651721370891    2.97846617088719
C        12.65726928491531    5.48146221849314    6.40259089670119
C        11.94390117047767    5.04524157591414    7.53387628665816
C        12.56946509695708    4.19159772793132    8.44826139883187
H        12.00358680761971    3.86224135730725    9.30711196283317
C        13.87174039401535    3.78669813469529    8.26530166513193
H        14.34314455086085    3.13280346060631    8.98173692515280
C        14.57527622745727    4.22635965892134    7.14966614085912
H        15.59687924701591    3.91367360680067    6.99936544868675
C        13.97544912636920    5.05869533687698    6.22930038504727
H        14.50560619915128    5.40197079171324    5.35538131046448
C        10.55448723950278    5.43464159464159    7.76996065732565
C         8.06128085907771    7.56814882025384    6.76274556706785
H         7.00444893762169    7.60478632795229    6.99657341018184
C         8.50740784475368    8.55507129193778    5.81915794870666
C         9.85753357520575    8.88522741381941    5.61251053470147
H        10.61047715309894    8.41383196704246    6.21849465198180
C        10.20802173814843    9.83477273313947    4.67793132701826
C         9.20610903745999   10.48755949630826    3.92202214251183
C         7.87037895324198   10.17686145424046    4.14568526786763
H         7.12181600693169   10.69250593851076    3.56693830300127
C         7.52401984078118    9.23214474387936    5.08589268806276
H         6.48293164373887    8.99580495969493    5.24446236715389
C        12.55720320794484    9.61177348952551    5.04620078890192
H        13.45438051166172   10.06467722255745    4.62874269556025
H        12.56761979117582    8.53496902591509    4.85900859897975
H        12.52528463064475    9.79964574039045    6.12340022159682
C         8.04099560083081    7.96211170616707   10.13568058072302
H         7.28414191921117    8.16763150085812    9.39309735856035
C         8.37090542597533    8.91375598079468   11.08421350316335
H         7.87456280659869    9.87071132329315   11.07598138710330
C         9.34122477810288    8.61637844400101   12.02780117192018
H         9.62531501959247    9.33754733620846   12.77815366412330
C         9.93723301510148    7.36604684028912   11.97982773655664
H        10.69784963032494    7.08218856354620   12.68909061343819
C         9.54489843747957    6.47208976373263   11.00002393152324
H        10.00168222940236    5.49469880356504   10.93397709002682
N         6.17836119828972    4.50037223449113    7.04771644985130
N         7.47603571559051    4.27457654253896    7.35061334063722
N         7.58054243328472    4.13472351911250   10.08732496243693
O         4.07483932274069    4.61291293892365    5.46749902731342
H         5.00723562357277    4.42383586532327    5.71081381939904
O         6.32952688838205    6.06720108018608    8.66764337098944
O         4.71811685954069    0.65497867562721    4.38739941143553
O         6.65867771448263   -0.51395005610918    3.00572192317196
H         5.69393983136746   -0.60233588119569    2.97848838242318
C         3.53898194460327    5.41261552757741    6.40257447743086
C         4.25233009376632    5.84881925307074    7.53387832055445
C         3.62671861966428    6.70237677577252    8.44831161296664
H         4.19259386015215    7.03175438541938    9.30715604227431
C         2.32441330418408    7.10719599914459    8.26538715519123
H         1.85298519156276    7.76105090118277    8.98184356435641
C         1.62088871927379    6.66752992942319    7.14974628936173
H         0.59927363788556    6.98018273908207    6.99945505975413
C         2.22076569114267    5.83528878901378    6.22932740558901
H         1.69061961040047    5.49201637166566    5.35539985929323
C         5.64175933176798    5.45946595041115    7.76995835370362
C         8.13499228693478    3.32595250884122    6.76284464905097
H         9.19183287304460    3.28933785782347    6.99663893819489
C         7.68887217366930    2.33905440161513    5.81921990952650
C         6.33874542203430    2.00891650168880    5.61256632775094
H         5.58581536586960    2.48031564722393    6.21856241381509
C         5.98823921757461    1.05937983555429    4.67798310976351
C         6.99014084199379    0.40659499390334    3.92206379080832
C         8.32587626198059    0.71728002980114    4.14572272787355
H         9.07443117771791    0.20162601047420    3.56697144558303
C         8.67225289129369    1.66198638194629    5.08593475617581
H         9.71334367355260    1.89830074639025    5.24452761058618
C         3.63907515356432    1.28237292184185    5.04633257918150
H         2.74188005176578    0.82946480899777    4.62891781893488
H         3.62863489621498    2.35917989666029    4.85915482439588
H         3.67105604186080    1.09448679683108    6.12352793706646
C         8.15527349248661    2.93209772828083   10.13578839394472
H         8.91222695650681    2.72659376830435    9.39330267047831
C         7.82524540426653    1.98043355978836   11.08426623769673
H         8.32164022103022    1.02350401174914   11.07612675517217
C         6.85469216177486    2.27773204657420   12.02763746589389
H         6.57057156442437    1.55658847265493   12.77800255504546
C         6.25865498446804    3.52804794757835   11.97958161439253
H         5.49794207715287    3.81188957663942   12.68874742031925
C         6.65111441490655    4.42202534230833   10.99984505752086
H         6.19431679220397    5.39940617951341   10.93374584939197

