76
CSD_code = PUQGUD | q = 0 | S = 0 | Stoichiometry = C37H32Cl2NPRuS2 | MND = 6
Ru        0.11798853909339    2.57209281546705    4.66455628695895
Cl       -2.09025929969600    1.94785519145765    3.98411519298584
Cl        0.10405534282029    1.24352813777477    6.66472280225970
S         0.97550054343057    0.75285123325629    3.41142346262053
S        -0.29238813239235    4.47458366527296    6.06767783500274
P        -0.17577745059955    3.88323964953977    2.79150292657731
N         2.00534239502807    2.94428597351454    5.07793373605857
C         1.28480460203057   -0.56445003112001    4.56763943045024
C         0.22373366175287   -1.44464271577007    4.74172368566374
H        -0.70162919624539   -1.26598174377708    4.21272235635730
C         0.35187282510028   -2.50100931071375    5.62129824410083
H        -0.47874574919303   -3.17332672287316    5.77422750241663
C         1.53897428485678   -2.68799419937954    6.31173890931592
H         1.63837759720486   -3.51041610864148    7.00427316697523
C         2.59141429052203   -1.80911260216022    6.12761116243151
H         3.51263855418598   -1.94225199794867    6.67585277458515
C         2.47284442458211   -0.73996738770014    5.25545360086662
H         3.29159690115133   -0.04403886571777    5.15166818200050
C         2.60685879477154    1.54953485313993    3.17908812866023
H         3.35155328019391    0.78243249084812    2.96563551449756
H         2.46983259987028    2.17191774796643    2.28797215489035
C         2.99544468176350    2.41224978705471    4.33840819703493
C         4.33249752775369    2.65662837632171    4.60086386793806
H         5.08743354523025    2.20653840356518    3.97491201923654
C         4.68118469518027    3.48502479571933    5.65541577111234
H         5.71421699625138    3.70464021223004    5.87052976864086
C         3.66127451945231    4.00570918526124    6.43682072110303
H         3.88187055461147    4.63008451063324    7.28818846746514
C         2.34403801537803    3.70024954414701    6.14027511266221
C         1.24317093561180    4.15624790688431    7.03569025848883
H         1.51598818321907    5.05274074499930    7.59204213350101
H         0.97861651418204    3.33569429654389    7.71099921572170
C        -1.49532652965580    4.15900409239151    7.35421938111483
C        -2.45671159673178    3.17907410763474    7.18726759891820
H        -2.47422674213626    2.57820079432457    6.28844312915923
C        -3.37901210145308    2.96404136504846    8.19748771426001
H        -4.12262927089535    2.19093801191736    8.07858544399107
C        -3.34221511172107    3.72619453643580    9.35241641502650
H        -4.05920294056538    3.55007373146891   10.14081369969795
C        -2.38620382329423    4.71865211444313    9.49950042486918
H        -2.35964523450064    5.32001552920670   10.39646946423711
C        -1.46140488748609    4.94486236796449    8.49648896511581
H        -0.71991019102799    5.72286200005469    8.60167680596058
C        -0.93665367113425    3.19679077402814    1.28465816409733
C        -0.34333314809843    2.10791737316229    0.64960390267492
H         0.57222621961447    1.68622809551741    1.04143035036176
C        -0.92706987069527    1.54435075266581   -0.46910757943083
H        -0.45798646779732    0.69806692115025   -0.94992384770415
C        -2.11545284898421    2.05556420374428   -0.96370487353718
H        -2.57588361189401    1.60998989802154   -1.83316734905470
C        -2.71691168191919    3.12954373222724   -0.33057075491796
H        -3.65092815675682    3.52337390486595   -0.70397099098937
C        -2.13506841710182    3.69895740703068    0.78770733554858
H        -2.62142608296424    4.52555288866960    1.28340908101330
C        -1.17699757973148    5.38555507043754    3.06201914721072
C        -2.28547310223068    5.31766538200002    3.90292990980678
H        -2.54894947609856    4.37196942888316    4.35860141245706
C        -3.06061566437374    6.44117072853021    4.12418268377368
H        -3.91632539369063    6.37987066118793    4.78023457168422
C        -2.74099486228103    7.63875086014044    3.50552045613382
H        -3.34441980870672    8.51757785765478    3.68004511092756
C        -1.64974553011741    7.70674417280562    2.65497257373384
H        -1.40474732262224    8.63648927706298    2.16187436270729
C        -0.86897154924031    6.58708850779710    2.43018035429053
H        -0.02148706142103    6.64727158794942    1.76172992082815
C         1.38816684845193    4.63022100630815    2.21215620896283
C         2.08316365445677    5.36717438609681    3.17092987352399
H         1.61583803035598    5.54117308116420    4.13417139626285
C         3.33282475350094    5.88198379012379    2.89235741388293
H         3.86324452384062    6.45094719522676    3.64210573233409
C         3.90710039167878    5.66374835971659    1.64871492057332
H         4.88795421459469    6.05865317738450    1.42936628307890
C         3.21720163696555    4.94734604895899    0.68593740706835
H         3.65687880972691    4.78991553952751   -0.28843921883993
C         1.96261933407119    4.42880615602586    0.96307140979301
H         1.42528634284324    3.87768528718808    0.20372300091318

