44
CSD_code = PUQHEO | q = 1 | S = 0 | Stoichiometry = C11H26ClN4PtS(1+) | MND = 4
Pt       -2.42489703207696    4.76343967634990   16.08810023000388
Cl       -4.50220345251639    5.35602549529433   16.73304076641643
S        -3.24797940555874    3.17388063460878   14.60431103771191
N        -1.56367363632161    6.33084947424847   17.27479878735847
N        -0.40123909132756    4.46306325166280   15.54336158149238
N        -4.80048198316155    2.20358108560773   16.54744964531406
N        -5.82310948715104    2.69229413833427   14.50891790858679
C        -0.19895417124132    6.57064874329652   16.77022892565819
C         0.45982361678773    5.21168622026347   16.48023346062438
C         1.87463441064674    5.41100329501390   15.93430718725134
C         2.71597350820890    6.21970923900907   16.91975032325568
C         2.06274060299701    7.56878687814886   17.20133751881097
C         0.65155079613642    7.37713887911091   17.75308661980423
C        -4.75447003163254    2.68769510117336   15.30134039469221
C        -5.94187379199961    2.41450303251653   17.41843539611158
C        -3.57537785913843    1.90478538168520   17.25250084460221
C        -6.95331687482076    1.80227169433049   14.67082403194861
C        -5.84499398956330    3.47385637746682   13.29188253798390
H        -2.13244204713882    7.17739910896554   17.22890821785657
H        -1.53373541465223    6.04534841389152   18.25643211646974
H        -0.10870350882584    3.48863351942881   15.48097345393741
H        -0.31103440301186    4.85755261644356   14.60409035838206
H        -0.28740564526469    7.12292881403320   15.82633865628910
H         0.50616582112897    4.63881372766684   17.41503323045101
H         2.34185816665641    4.44093621140615   15.75496332635793
H         1.82273130672382    5.94352546963006   14.98131657745796
H         2.82317733364085    5.66204291240923   17.85197638649291
H         3.71240053291387    6.37081577435995   16.50616656943922
H         2.66071810646390    8.12582615426200   17.92170019881355
H         2.01872211215421    8.15444336262160   16.28132738912874
H         0.18736295602588    8.34844782820698   17.93269861011263
H         0.70496949961092    6.84521069893762   18.70655057827781
H        -6.71591641433545    2.98147834179789   16.91326857885278
H        -6.34319370973363    1.46364081162946   17.77165590456032
H        -5.61536417332075    3.00273782248699   18.27775552856806
H        -3.81425017993023    1.27317263855498   18.10507955731496
H        -2.88816129232951    1.37441181060272   16.59407736058078
H        -3.08963087798237    2.82826017656364   17.61339429050513
H        -7.85011941145892    2.34306563395535   14.97871987488234
H        -7.15457688578355    1.33125871988886   13.70702389107863
H        -6.72941137712317    1.02225601772305   15.39245278334966
H        -5.23864601809430    4.36969057569713   13.41493339084917
H        -5.45959211456583    2.90204095204807   12.44504222323550
H        -6.87287449004174    3.76704328867795   13.08591374912205

