53
CSD_code = PUQLIW | q = 0 | S = 0 | Stoichiometry = C27H18O7W | MND = 6
W        -0.14199707982627    3.07980713576942    1.58088633558122
O        -0.03705989447153    3.45947910904025    4.75197754710218
O         1.50692655652518   -0.40604323310762    7.75635757557694
O         1.67346182133078    5.64031350733888    1.57041866441585
O        -2.81681307098912    4.71492865068743    1.74003307373055
O        -0.38182357920650    3.61191551363304   -1.50889040300253
O        -1.88296985530367    0.48429251104755    1.27693690819834
O         2.44929085700559    1.36897357710247    1.10719775800664
C         0.05738177518594    2.62516256047685    3.70730211313246
C         0.33818273815112    1.28956989417614    4.08833770932957
C         0.62179315609235    0.73028347944190    5.32878875485419
C         0.75696777439903    1.47707182462825    6.54230902547823
C         1.19912802414963    0.90759827944325    7.69160438608558
C         1.30815311316361   -1.17627935192280    6.66430216655049
C         0.85594201989246   -0.68770662287326    5.47347609565124
C         0.66050803936592   -1.65841529023652    4.34119220371061
C         0.26065025397820   -3.04163798088396    4.85143522521164
C         1.18952941299348   -3.51712747799568    5.92643131725824
C         1.54301588902677   -4.84695990501066    6.07318305452750
C         2.36344941285354   -5.24766567633464    7.11583046844279
C         2.83467630195850   -4.31669748647642    8.02707032566086
C         2.49027340876353   -2.98519432579780    7.89469363660452
C         1.66905834737300   -2.57753086634729    6.84572871089784
C        -0.31796641734182    4.82306184158595    4.54330822702231
C         1.00252510487017    4.71624463438786    1.66096893109651
C        -1.82934229206791    4.13479606427483    1.77081955759976
C        -0.29415036211125    3.41450124789068   -0.38545687226658
C        -1.26026081051632    1.43467275580784    1.40954992111313
C         1.51541264468765    2.00059634336992    1.29824060395279
C         1.38529417073775    1.61723612248106    8.95854654217385
C         1.55693992619203    3.00142998751816    8.99979269723521
C         1.73023278963264    3.64625245823560   10.20906607349385
C         1.73893813707622    2.92559449478580   11.39282174995594
C         1.57697546341120    1.55037470822642   11.36140055162309
C         1.40336296661416    0.89920502618371   10.15558359119276
H         0.36357156235928    0.60070147506131    3.25597987032172
H         0.50673926441000    2.52029022368692    6.53344524690361
H         1.59241629153561   -1.72621274134657    3.76943660139407
H        -0.11712491497659   -1.29881534653156    3.66801810196107
H        -0.75099662701749   -2.98839863397544    5.26953139813506
H         0.23847957216236   -3.75140705338303    4.02375260061895
H         1.17280121715577   -5.57622889013184    5.36741496708723
H         2.63456006749785   -6.28780986214909    7.21666272644322
H         3.47314256201518   -4.62916964544240    8.83955667914472
H         2.86256670661749   -2.25126547479103    8.59308760007437
H        -0.45197139468302    5.26390463293135    5.53194004178018
H         0.51134927255541    5.32029424294041    4.03237350240524
H        -1.23166455058631    4.95463957239604    3.95703800543085
H         1.57621640124899    3.57051155285011    8.08364491010951
H         1.86524288017730    4.71737847677480   10.22933548498142
H         1.87537849288609    3.43412920765260   12.33526384465071
H         1.58511950045796    0.98344757391326   12.28040409147010
H         1.26858695258331   -0.17159282100101   10.13307009988746

