75
CSD_code = PUQLAP | q = 0 | S = 0 | Stoichiometry = C34H36FeN2O2 | MND = 4
Fe        3.30473133291520    0.37836028791749    8.74238277508589
O         2.31901262523189    1.14270815025007   10.18845901252843
N         2.95599242224513   -1.32609299515183    9.65027969205947
C         1.71931081389921    0.75142445530437   11.25494569213701
C         1.08948093712804    1.68405673106836   12.14135728501576
C         0.46515286508444    1.19991798715816   13.26576780481068
H        -0.01844940377770    1.87938789329751   13.94861634208209
C         0.42677923719454   -0.16387287882078   13.58173192925864
H        -0.07911084896470   -0.48622088047544   14.47924048443631
C         1.03041017737105   -1.06972650739949   12.75667153642046
H         1.01578892547433   -2.12577130956551   12.98806159220865
C         1.68607562441734   -0.64243638070150   11.58841279722749
C         2.32444011187116   -1.59577930011160   10.75992496820029
H         2.25817681266322   -2.63593381592797   11.08410698612100
C         3.66586735397617   -2.32992879122209    8.99192668465143
C         4.42870502333133   -3.27915003695893    9.67520796116171
H         4.46201967616476   -3.26003092557271   10.75440449457791
C         5.16828892729566   -4.21127306035277    8.97271931617579
H         5.75990315799003   -4.93606008687089    9.51235776354867
C         5.16428992090964   -4.21334394546746    7.58758399693242
H         5.74779820617286   -4.94165237567600    7.04483642329238
C         4.40611686991751   -3.27766831196367    6.90097990011361
H         4.39380712238153   -3.28047778552818    5.82101137935215
C         3.65784930060131   -2.34553746402419    7.59274672603160
H         3.03492800805030   -1.63169337201543    7.06473754917718
C         1.14211973300774    3.16954355566611   11.80755524125903
C         0.45535740801512    3.40977798646066   10.45575601100537
H        -0.58438676278433    3.09099947672713   10.50065157810578
H         0.95723546623637    2.85353228772244    9.66938087375170
H         0.48415472230121    4.46821040836918   10.20476242452182
C         0.43662861219493    4.03387417947888   12.85780847549477
H        -0.61828875998071    3.78021544093109   12.93327763253871
H         0.50935170118820    5.08004681931194   12.56697198756375
H         0.90190776438663    3.92480427709499   13.83491172830892
C         2.60894779053915    3.61935231147024   11.73351791496460
H         3.13249964168132    3.08920722577703   10.94280066885762
H         3.11074323195035    3.42396927354004   12.67979359241316
H         2.66211464298123    4.68654800668607   11.52743462457238
O         3.77303499863736    1.21015873073464    7.25680591523194
N         5.50575285570394    0.33498906202408    9.19179359271562
C         4.81547023122899    1.75233072228300    6.68157489849805
C         4.63870052746994    2.56450770241805    5.52391761230416
C         5.76035310885809    3.06004406801563    4.89181097083159
H         5.65809360288256    3.67390099021508    4.01251650889370
C         7.05128444883171    2.79421051362333    5.34655859558908
H         7.89854214081475    3.19368762574351    4.80990956656213
C         7.23337568779082    2.03982012796507    6.47414437017821
H         8.22886923602124    1.84016301618711    6.84543573989569
C         6.13282473305394    1.52162769792622    7.17462896464551
C         6.39361929602555    0.79817360675940    8.38005758956966
H         7.45562217783649    0.68135062253295    8.62376822686019
C         5.90759380499545   -0.38118500609097   10.31733283886008
C         5.25563202899747   -0.13664399448918   11.52687063188945
H         4.49781460694611    0.63074787231802   11.55817350407365
C         5.58541216835907   -0.86203856555933   12.65319007938612
H         5.07335104890231   -0.66566792354696   13.58374256486150
C         6.56613078961193   -1.84135526442204   12.59215563640623
H         6.81880705798978   -2.41182557107989   13.47359700501447
C         7.21454102533348   -2.09059912948766   11.39442729665267
H         7.97124222256662   -2.85977899424029   11.33904669760245
C         6.89222662993968   -1.36766989646940   10.26075444338503
H         7.37203701531966   -1.58995521149059    9.31821342213055
C         3.23101287958047    2.86397237803676    5.01896511710418
C         2.42907766053387    3.56342033883066    6.12691907820249
H         2.91320774732032    4.49750993849813    6.40549777873974
H         2.35193027735171    2.93649094651072    7.01168381744090
H         1.42404154241583    3.78590265174396    5.77419527104388
C         3.22976720930690    3.78443259275247    3.79308824712103
H         3.69055383011633    4.74317953943233    4.01922035979803
H         2.20170592488785    3.97125026702898    3.48934780297603
H         3.74710520050173    3.32637553107320    2.95309983559387
C         2.54299238431107    1.55147276217054    4.61452240974616
H         1.55542451837688    1.75922741323736    4.20768794708840
H         2.43071373309313    0.89467234790619    5.47241845521387
H         3.13018525686506    1.03821396044489    3.85483336191230

