129
CSD_code = PUQPOI | q = 0 | S = 0 | Stoichiometry = C46H74Cl2CrN4P2 | MND = 4
C         3.98173299776399   11.01549445855877   15.51458836698550
C         5.21119605566937   12.59311174695523   14.48701385234189
H         6.05255403575597   13.24234177620468   14.34709910605233
C         4.07909114281402   12.45478831149836   13.76816308711130
H         3.77785894247650   12.94480515688106   12.86504149791481
C         6.17311759052579   11.55520024854973   16.50506917264795
C         6.29681525973495   12.50654098589239   17.52055394937835
C         7.30869428553616   12.33366132949873   18.45689272522943
H         7.42529547592944   13.04831036566488   19.25660757022760
C         8.17770141346825   11.26567956462790   18.36876916426815
H         8.96158692262596   11.14639617410477   19.10275021554263
C         8.06767890596560   10.35801508515806   17.33007455108459
H         8.78328651319717    9.55486632883649   17.25977959812953
C         7.06292746937737   10.47937725166715   16.38048649449094
C         5.42758355417368   13.74229307218464   17.56178821015888
H         4.63336947744374   13.64710449567459   16.81606449263507
C         4.74679270729107   13.94647882891229   18.91443471707368
H         4.02848240963493   13.15071975488416   19.08979368288496
H         4.20716327846702   14.89115131606508   18.90975699221608
H         5.46572354384766   13.96727841462180   19.72881483357154
C         6.28382992360093   14.96179391043449   17.20101008707659
H         7.04966242519995   15.12708812355296   17.95515255010384
H         5.66166258029974   15.85211485847626   17.14124745481884
H         6.77807567077390   14.82188105676746   16.24128755099312
C         6.95786403520287    9.53078783417435   15.20452460096631
H         5.89814096864170    9.29685830917097   15.04614719346103
C         7.71049873524280    8.21530505038129   15.40211172517766
H         8.78592427929187    8.36907195574450   15.33354525531964
H         7.41932534862005    7.51802395754456   14.61997179869531
H         7.47972601635116    7.76363991954204   16.36077170787584
C         7.50040709989690   10.20633675675342   13.93822104333312
H         6.91761692072772   11.08078201485722   13.66480723129568
H         7.46669809181208    9.50533195394718   13.10736490444848
H         8.53378773728496   10.51380198103250   14.09168761531287
C         0.64261667743560   12.33521449342739   14.34070208442794
C        -0.77811119584067   11.85802239756979   14.03906388235942
H        -0.97593578322916   10.91688414942621   14.55269551602808
H        -0.93765471976161   11.70595026418368   12.97449987313218
H        -1.50198197127943   12.59910405129677   14.37845418306411
C         0.72785319390829   12.73635923328662   15.81362230016184
H         1.72561041395557   13.09365215056347   16.06660205367083
H         0.50434707872411   11.89220284538346   16.46295977783732
H         0.02269466684707   13.53685918893828   16.03429462751251
C         0.98746072081431   13.57356220940218   13.51677986540239
H         0.26193364542154   14.35274439152250   13.75349297255183
H         0.94673833116731   13.40397655340284   12.44748003293842
H         1.97035508399956   13.95495702932482   13.78200038438029
C         1.80441651375846   10.17304009539691   12.42374832119103
C         0.81524021463726    9.00521239867263   12.43255864355482
H        -0.19350355716231    9.34222112478432   12.66526778363939
H         1.11639158674333    8.28006291945423   13.18481515827268
H         0.79869279534778    8.51060414428881   11.46265935896189
C         1.42604427545556   11.16120656767926   11.32264070624822
H         1.48881356325171   10.64419263433070   10.36436793098723
H         2.11595674365349   12.00088544149095   11.28435496342138
H         0.40978631270296   11.52949509298311   11.42568406737349
C         3.20730545022367    9.64851345470863   12.10985324203242
H         3.18686772660988    9.11463521787936   11.16073054212689
H         3.54432024533087    8.95715196018400   12.87751641715801
H         3.92649904485961   10.46118847361347   12.02306697891257
N         5.14277129789677   11.70651787240993   15.54315463713116
N         3.32170975829180   11.49695552681038   14.40914053854977
P         1.76631124058727   10.79426587263526   14.23563958429066
Cl        2.52115390625854   11.34574732645109   18.09555664739447
Cr        2.85851244800268    9.69705641579799   16.54810100073298
C         1.73432714219750    8.37894527744535   17.58103902283700
C         0.50456201635403    6.80215494244100   18.60950497519144
H        -0.33680722169057    6.15302321512804   18.74976975913431
C         1.63647476929742    6.94106522931242   19.32854037991072
H         1.93747334944919    6.45184788932192   20.23216087677286
C        -0.45676588810234    7.83801940211388   16.59017098154674
C        -0.57937296529292    6.88578886228541   15.57538365615806
C        -1.59080680410089    7.05737580461224   14.63832723356232
H        -1.70664157603586    6.34197750927142   13.83917829629469
C        -2.46032956144920    8.12505568989673   14.72500715131330
H        -3.24378792169221    8.24338838896828   13.99040758577474
C        -2.35141201187045    9.03358180009007   15.76305239745277
H        -3.06747381001341    9.83641872894570   15.83228553082214
C        -1.34726149240294    8.91341047663883   16.71343870011583
C         0.29083710114182    5.65068912569391   15.53549884370614
H         1.08498610676963    5.74739685329259   16.28110221843322
C         0.97174232784882    5.44576559799380   14.18303497972521
H         1.68869131991782    6.24246625834536   14.00647574781265
H         1.51295398894881    4.50201835727191   14.18895802673433
H         0.25273872522745    5.42259820594031   13.36878744245061
C        -0.56416859636970    4.43071165087272   15.89756343476090
H        -1.32985017289141    4.26386698828164   15.14361702060545
H         0.05893597101109    3.54110575013988   15.95819305148162
H        -1.05852384844016    4.57104478084234   16.85716256513372
C        -1.24374152107274    9.86270576829995   17.88897461535171
H        -0.18430741970716   10.09744969124845   18.04804800988067
C        -1.99724736648026   11.17750999224609   17.69017954200194
H        -3.07258399160421   11.02298305755374   17.75840541315107
H        -1.70695030786552   11.87555557083476   18.47195860193584
H        -1.76644337956098   11.62870199320614   16.73131552397346
C        -1.78682444047266    9.18739614007698   19.15518711118709
H        -1.20324225696280    8.31387251250151   19.42983938550109
H        -1.75489808860017    9.88900344476584   19.98561101252960
H        -2.81965813794135    8.87855072905065   19.00080121447545
C         5.07273930237143    7.05875982747173   18.75467120383227
C         6.49386431984020    7.53538653260640   19.05533092797591
H         6.69199861027158    8.47600507404148   18.54085689236938
H         6.65398061099936    7.68823271047951   20.11969333300724
H         7.21713964577469    6.79361962610095   18.71618148554543
C         4.98661891460489    6.65721053986229   17.28192462656826
H         3.98875520642118    6.29976243640328   17.02961498888937
H         5.20970577614102    7.50119663887725   16.63221770008954
H         5.69172258556457    5.85672589918757   17.06104493008384
C         4.72763738147915    5.82084827887142   19.57913706432656
H         5.45223351334572    5.04100093639421   19.34178789417903
H         4.76959377265668    5.99058521247118   20.64836128275829
H         3.74412755979577    5.44029250667324   19.31497919238664
C         3.91309073485455    9.22185630096990   20.67176858239679
C         4.90285128721008   10.38917980192720   20.66216425593529
H         5.91133750194289   10.05159244326153   20.42919967090941
H         4.60178709695441   11.11418149352056   19.90973548458215
H         4.92000204989532   10.88415129763153   21.63187384713888
C         4.29165114570475    8.23374399494544   21.77286301861238
H         4.22995888265820    8.75107024847725   22.73103804976240
H         3.60125397381870    7.39450104685655   21.81189877026736
H         5.30760070048397    7.86479983754791   21.66914154450269
C         2.51069512536471    9.74723273989604   20.98635881139073
H         2.53182061809776   10.28074467600004   21.93567598690971
H         2.17386043275005   10.43906294935311   20.21903513990327
H         1.79098346454868    8.93502777555802   21.07309461644543
N         0.57323361218997    7.68796950083265   17.55270138697848
N         2.39399120907451    7.89840919909354   18.68705726644738
P         3.94984557468074    8.60030122493011   18.85995499815347
Cl        3.19420782964502    8.04842971863490   15.00055966567441

