112
CSD_code = PUQQOJ | q = 0 | S = 0 | Stoichiometry = C52H49O8P2Rh | MND = 5
Rh        0.78030186876572    9.07492361913195   23.20004037594192
H         1.22666088666406   10.53977353929732   23.21184005968892
P         2.74840207977827    7.97412554826368   22.08466902194676
P        -0.20104297846640    7.02328082783524   23.42670714584819
O         3.06133512647888    8.34877888548151   20.53773992663732
O        -0.78431297684668    6.22409895359367   22.15740188769471
O         3.01844535363682    6.35995409977405   21.99377841471614
O         4.18686975884166    8.48592754069426   22.59293383192673
O         0.81405998158998    5.88182639851346   23.94472377973621
O        -1.48632166056876    6.81508298776534   24.38770057634580
C        -0.28385480739072    9.64272491648619   21.78450416088148
O        -0.98613456260374   10.12586960718439   21.00778692507384
C         1.32674312087958    9.05965805946918   24.97547978522530
O         1.57952015678700    9.08949355678567   26.09892904185745
C         2.19915586655175    8.98826299317804   19.68350281691982
C         2.52987246003319   10.26145978707511   19.23006915473221
H         3.41428693819390   10.73555126961405   19.62630687508280
C         1.74160613065934   10.89456214080665   18.28772242945615
H         2.00693310431078   11.88484685421592   17.95004095410296
C         0.61909083043151   10.26510649984210   17.77132362489905
H         0.01210395439875   10.75268277912470   17.02326627445390
C        -3.02330204104105    8.07256167379423   19.17284257198287
H        -3.60136897100884    8.55967429467723   18.40196312385895
C        -3.61921013900042    7.69512406302086   20.36623563591237
H        -4.66938562786946    7.88454869497854   20.52880278598318
C        -2.87329691578952    7.08640421125257   21.35827537433569
H        -3.32069688847361    6.78601119273723   22.29278492007061
C        -1.51818467902413    6.84744935058253   21.16859536627518
C         0.52735692402639    7.02017561716722   19.59803909306364
H         1.10980237320575    6.55441663045488   20.39510510039226
C        -0.87760244823562    8.17545341885248   17.76356124374309
H        -1.47430855650179    8.68295710817604   17.00438690248420
C        -0.28635667600396    6.85298589605221   17.21870410912003
H         0.33901558762978    7.08031419580371   16.35458447631975
H        -1.10512503366740    6.21424293019007   16.88512988168381
C         0.53464032252137    6.15581041311083   18.31533387468690
H         1.56683825143468    6.01366277336757   17.99368085571431
H         0.11474484796211    5.17651479209834   18.54885847033293
C         1.05289469750305    8.37180772425322   19.20454460137196
C         0.28364109670170    9.00728420770797   18.23077742858275
C        -0.91492178242397    7.21041887171120   19.97491439998966
C        -1.67806977305665    7.82530419683220   18.98316694547934
C         4.24878864428270    5.80136914817472   22.29151501889145
C         4.94157245893829    5.15075971657862   21.26997339576905
C         6.16438571008461    4.57255974715753   21.56520811220015
H         6.70778372268334    4.06488673583618   20.78080469322458
C         6.71528029170661    4.64291651385761   22.83912752469264
C         6.00320571448561    5.29213312351943   23.83350213378689
H         6.41131626126519    5.35557446893571   24.83223761735352
C         4.76623085822944    5.87113935380026   23.58049223130368
C         4.35384513643202    5.09872010237401   19.89347981498760
H         5.04168857078547    4.62738961928589   19.19634343424059
H         4.13123839978281    6.10805321051987   19.54979230667530
H         3.41924388996055    4.53792467438432   19.90312270005890
C         8.05795403269980    4.03630124459639   23.11642890216463
H         8.24410829202232    3.97614629224241   24.18553693444193
H         8.84313049962962    4.64330696351286   22.66572966049766
H         8.12367221243859    3.03684703728625   22.69066535071508
C         4.00075192107508    6.53838409186733   24.69062351072358
H         2.93494607089270    6.52283293649703   24.44126150756187
H         4.13857373583158    5.96821147922417   25.61239240423075
C         4.44413888382139    8.88402573062062   23.88944299212650
C         4.77000155196143   10.22221881559775   24.10744692582816
C         5.08740810471093   10.62345464708761   25.39499822537841
H         5.33533121836829   11.65962085381252   25.57519892118503
C         5.08164892118326    9.72807890976900   26.45545881868376
C         4.74701531678403    8.40497122076751   26.20853848379184
H         4.72707244270828    7.70128003198647   27.02879019467762
C         4.41777176916091    7.96571087872032   24.93444014023008
C         4.74794285640553   11.17904305454307   22.95748305452749
H         5.02458770374132   12.17948182564141   23.27864934568802
H         3.74580158030587   11.20650690488843   22.52735834881695
H         5.43366801295224   10.84798485406220   22.17873569620154
C         5.39411970302668   10.18726612020011   27.84746594376509
H         5.87608495061807    9.39704277707870   28.41848984081452
H         4.47137530169281   10.45950855729401   28.36040829427586
H         6.04251389097513   11.05983061373913   27.83236870987448
C         0.26757069513309    4.71544059161734   24.47824022829425
C         0.16924748767489    3.56764938576574   23.69912581908180
C        -0.42006243769626    2.44539368332780   24.26554554931832
H        -0.50310987943374    1.54671126988992   23.67079023905425
C        -0.91001543161779    2.45157327578206   25.56359291142996
C        -0.75629510458804    3.59976923733199   26.32724299157848
H        -1.10128952971140    3.61312755323131   27.35133537672100
C        -0.16060456672433    4.73731534074802   25.80341076204391
C         0.69388780550287    3.53758330308571   22.29657479170278
H         1.10223260247382    2.55544832177965   22.06616752559326
H         1.46758040965317    4.28987958979758   22.16443009280301
H        -0.11063500595678    3.74919922619678   21.59238965999764
C        -1.58958120407483    1.24113839828586   26.12934200908842
H        -1.48373600109428    1.20580839278079   27.21084448816273
H        -1.17680196862239    0.32982860228037   25.70314715198323
H        -2.65419019702516    1.27010961817271   25.89534536037977
C         0.11279871194566    5.93402855359870   26.67436877793424
H         0.29427474353625    5.58161974995617   27.69245466367986
H         1.03543191126943    6.41261864614056   26.32511754566266
C        -1.63125678022885    7.45600486211868   25.60857065075082
C        -2.51376813642661    8.53555447193174   25.68498961186299
C        -2.73479693176248    9.12832842302532   26.91683352668466
H        -3.41452491405450    9.96557479348835   26.98119762216700
C        -2.09732392878976    8.67672097282924   28.06393544250607
C        -1.20812311505316    7.62091659502410   27.95230643070798
H        -0.68573203890073    7.27462392433820   28.83273945074374
C        -0.95103930723584    7.00296254837319   26.73455936080421
C        -3.18922715403364    9.04213306792948   24.44925288301475
H        -3.73398380745461    9.95838515775866   24.65896203027564
H        -3.88646452206422    8.30003808986426   24.06258629920749
H        -2.44633004447507    9.24378672995379   23.67366989091536
C        -2.33869810310937    9.34495436517571   29.38318002737941
H        -2.07846355869037    8.68559395407249   30.20732385289363
H        -3.38073553794318    9.64075714105797   29.48124039634345
H        -1.72615899311736   10.24342678686032   29.45972116528888

