148
CSD_code = PUQRAW | q = 0 | S = 0 | Stoichiometry = C67H66O11P3Rh | MND = 5
Rh       10.45971728030651    2.02032516993644   18.09189205177407
P        10.08178892547034    3.92231650366317   19.78501827615776
P         9.01351965926901    3.11455973972702   16.68431443203793
P        11.67577717533980    0.58583190557230   19.36741211107356
O         9.47110906347451    4.98460358957460   18.72567552123117
O         9.06935707144891    4.54853914590052   15.97582316867518
O        11.20562839433564    4.80927977599817   20.54892697571972
O         8.85826012277676    3.98343036629192   20.85820951370386
O         8.65923873135258    2.21911585476653   15.36754209434077
O         7.58918782949026    3.22924900720346   17.40765458622507
O        13.11073046427669    1.20070627571515   19.89118233445509
O        10.81242398606773    0.63200894415937   20.79384276216305
O        11.95755516625088   -0.78600302000611   18.93161912633209
C         9.72865294400290    6.33588431534931   18.57243731681269
C         9.00432022633071    7.29006604238673   19.28891547351416
C         9.21779508067192    8.63276038612200   19.00766786808749
H         8.65471920010659    9.37230832015948   19.55907441456838
C        10.12618472997624    9.04727396887780   18.04486618848860
C        10.85399629140669    8.08019070736658   17.36851550647984
H        11.57850024308890    8.37674976870237   16.62416300970927
C        10.67585434259901    6.72865770195195   17.62520384439531
C         8.03367186948345    6.89195840269065   20.35564961878441
H         7.23534555885883    7.62594114810927   20.44032724514432
H         8.54654628949989    6.83257189314329   21.31750671092713
H         7.60926778774800    5.91437105158042   20.14669206941697
C        10.34372031739221   10.50440257926296   17.77080874404773
H        10.66675903489085   10.66037008743629   16.74450751459479
H        11.11676221921493   10.89705141777010   18.43220516346252
H         9.43253877747132   11.07129881537416   17.94563733316320
C        11.52341212963280    5.71709832095848   16.89850349715869
H        12.57282679014118    6.00981390418299   16.98175364477102
H        11.39657696957211    4.74127547847784   17.37364256107175
C         9.96306043543784    5.03622721266816   15.03352901978251
C         9.59152162885898    5.01781763379212   13.68904098916850
C        10.46351206497989    5.56042342151801   12.75606716246593
H        10.18378137298566    5.54446247909310   11.71251623229687
C        11.67634002307628    6.12059086926422   13.12751964428439
C        12.00192518211902    6.15432767640100   14.47524757691442
H        12.93669516750878    6.60029329876612   14.78344668750455
C        11.15886558707101    5.62437255584735   15.44111663672791
C         8.27880607354084    4.43898912088359   13.26046044248780
H         8.00938269598041    4.79782477795311   12.27032618547570
H         7.49284849687541    4.70558704704519   13.96485711101514
H         8.33906923670785    3.35190810369685   13.23121183476593
C        12.61851047198765    6.66510792235053   12.09767448185570
H        13.20960178644400    7.48211565454751   12.50430186336078
H        12.07649187119470    7.01965656584465   11.22447122354923
H        13.30457431854700    5.88203814212846   11.77393020575064
C        11.21462978410132    5.30354045975006   21.83566562949545
C        11.88747187679913    6.52291199629088   21.98397917538607
C        11.98593188236310    7.09398519149610   23.23843862910192
H        12.49837441332243    8.03941686217875   23.34767445543494
C        11.43218948202156    6.48202276427851   24.35661752836474
C        10.78874399580883    5.27246649442472   24.18771828752806
H        10.33585328941992    4.79316193519853   25.04262509320343
C        10.66940561242300    4.64999510172394   22.94082233687071
C        12.48179747070052    7.19400522369004   20.78388482224668
H        13.13467154398717    8.00890431331935   21.08653552208295
H        11.69484642880375    7.59533657584860   20.14564601107495
H        13.04848879596056    6.47647953790619   20.19535657571878
C        11.55271969154662    7.12144729193540   25.70708566109043
H        10.93896642366109    6.60355843726215   26.43933186751327
H        11.24491780019284    8.16480986313307   25.66625619901284
H        12.58890271724440    7.09347365760402   26.04401564805165
C         8.98514927879060    3.10255309526510   21.92063793230861
C         8.14911921672618    1.99078580970948   21.98837118783885
C         8.31489295307836    1.11173658303568   23.04626005083908
H         7.67491884389991    0.24359863498640   23.11405948364169
C         9.28914296137823    1.31550455061465   24.01570171893866
C        10.07027550168493    2.45519822463354   23.94598205833372
H        10.81838477227506    2.63150928961990   24.70282712722976
C         9.93168925174795    3.37273754425547   22.90576254630164
C         7.06040825569792    1.79589836278665   20.97779788114247
H         6.88507633994353    0.73843751854858   20.79512146418511
H         7.30740217309185    2.28675965630112   20.03799470160760
H         6.13357134019800    2.23412367879012   21.35218578193201
C         9.47155625844073    0.32011846226174   25.11983841263096
H        10.10564473332913    0.72120156094178   25.90608377786196
H         9.94236823075817   -0.58005302772617   24.72643439033595
H         8.51065386839282    0.04053168153365   25.54807487463345
C         8.14714598980665    0.95929333103012   15.66918385685497
C         8.95126930432143   -0.17633292307464   15.61622211425327
C         8.36610986480248   -1.39803538224640   15.92507048174176
H         8.98432503736740   -2.28338552773305   15.90428866447307
C         7.02895324685373   -1.50810137696378   16.28089084729848
C         6.24689284733006   -0.36298080563922   16.30278667362237
H         5.20418247796795   -0.42170189551402   16.57870484001974
C         6.79611770120230    0.87847642492129   16.00850234213251
C        10.40013195444527   -0.11135357442744   15.24256195823613
H        10.62713325275307   -0.86411013211603   14.48937800551045
H        11.01749936948347   -0.32029723654865   16.12034546569436
H        10.65884741183610    0.87014654079844   14.85035849758217
C         6.45685771188407   -2.84248345295631   16.65007666672774
H         5.37272664844971   -2.79933555290578   16.71494021781596
H         6.84897483227855   -3.15522055159366   17.61723527675092
H         6.73803717456757   -3.59655488088472   15.91766817611335
C         6.41079324058758    3.25845590438455   16.66098779883476
C         5.65341474830654    4.42751792277474   16.63699310765535
C         4.44527933625924    4.41424340779689   15.95582501930974
H         3.85386151771726    5.31831075164854   15.92577192763122
C         3.97868646701607    3.27504200745023   15.31153734154524
C         4.75123030625198    2.12644324985181   15.35192143861986
H         4.41907506653511    1.23212615412398   14.84571368841156
C         5.97509115424649    2.10295261968783   16.01410339710638
C         6.13365937861756    5.65258828571699   17.34833313142641
H         5.62310989465495    6.53900209364260   16.98020264287612
H         7.20687326555015    5.77380561105131   17.21945857471137
H         5.93798169573920    5.55729294655901   18.41602903845758
C         2.66047980393416    3.29729105125405   14.59884321206122
H         2.54849010822388    2.42484831996298   13.96072865569840
H         2.56903262517341    4.19409048145205   13.98938363449264
H         1.84469434710631    3.30108058051703   15.32165937859982
C        13.30620113171789    2.06084287741333   20.93773015431444
C        13.92678502987736    3.28985524702590   20.69256069852522
C        14.25829761791122    4.10335007722400   21.76304361271523
H        14.74841399032031    5.04786509206153   21.57272249136312
C        13.99097740675254    3.73154003424371   23.07317921754028
C        13.37881432034226    2.51177186384390   23.29667320840056
H        13.16830950431789    2.19892081136089   24.30874253432511
C        13.02691676809298    1.66461289242201   22.24922964728714
C        14.22879117584727    3.71173494897820   19.28742839704158
H        14.98185919821515    4.49687284968613   19.27291465358654
H        13.31906821122951    4.09041719714800   18.81797455325902
H        14.58231220187022    2.86387193004371   18.70455164260206
C        14.39772046601786    4.61216530091821   24.21641181033538
H        15.41988766671211    4.38167836665663   24.51945973553439
H        13.74651025907322    4.45865314834654   25.07340270894765
H        14.35633439120878    5.65937781201139   23.92729263671552
C        11.35695297759452   -0.13621786676931   21.79916415763878
C        10.80840122859496   -1.39006360719480   22.07241209278968
C        11.33304824562308   -2.13145702183389   23.11777822275655
H        10.91585515927860   -3.10597527597316   23.33217986192088
C        12.39310142640178   -1.66192278031796   23.88627185229470
C        12.92661892862552   -0.42079228334557   23.59040426007196
H        13.76933551649367   -0.05132208100345   24.15646519731907
C        12.42737167789257    0.35353833854809   22.54453600812668
C         9.68501026633329   -1.90542577692992   21.23033782965811
H         9.34603866345034   -2.87607581740632   21.58441122221913
H        10.02407354049174   -1.99771500049686   20.19927369102866
H         8.85266964001999   -1.20356794587027   21.24219007303339
C        12.95142099557257   -2.50287685019918   24.99602625175684
H        13.60504043667530   -1.91634987780676   25.63684133758084
H        13.52876558416388   -3.33040662633594   24.58391731599514
H        12.15020501702700   -2.92427196638255   25.60098168903875
C         9.12072604665067    0.82692718933683   18.61266196381192
O         8.43359826278718   -0.05677222207831   18.84717140790221
C        12.00747855321197    2.38639689476141   17.12464574499887
O        12.93363443924088    2.43659835438583   16.44741123739344

