53
CSD_code = PURCUA | q = 0 | S = 0 | Stoichiometry = C16H33FeNSi2 | MND = 6
Fe        0.52482569115923    0.16846616488648    9.50094450211658
Si       -1.17759224433782   -2.42958136195446    9.69568807015352
Si        1.90751287815622   -2.29150271589247    9.27684018211986
N         0.35948810521108   -1.64108863006459    9.66637553411897
C        -0.81249292064557    1.90714303951056   10.53550480911431
C         0.56721418162247    2.19041359840635   10.24815582011715
C         0.74737565611867    2.14634125866381    8.84239857614206
C        -0.48296417967175    1.69605680645825    8.28594862208454
C        -1.46108733860354    1.62418190244972    9.32899941676265
C        -1.40173868402888    2.00517994299017   11.90651380127305
C         1.54832146138106    2.70604262598062   11.25708075324988
C         1.93770911393003    2.63166165795845    8.07007408610909
C        -0.76861247949861    1.56624041878743    6.82148569091447
C        -2.91145395113603    1.33149400536833    9.11468228998187
C        -1.06947225807717   -4.29949821992124   10.05553171720273
C        -1.95710232070056   -2.17732834174143    7.96679871609426
C        -2.18848004721002   -1.56373712458959   11.05565636990981
C         1.96844397568061   -3.08392117495277    7.53542765507419
C         3.00391543388331   -0.72041052253296    9.28534212215934
C         2.57619431140039   -3.55502795749931   10.54639715461581
H        -2.45049996920123    1.72176320975103   11.91092234699376
H        -1.32218891568289    3.02956652387105   12.27444022914183
H        -0.86978139260593    1.35963559268871   12.60388552144530
H         1.46635613651136    2.15391392707087   12.19152783759941
H         1.36059073679963    3.75970807624517   11.47275049439064
H         2.56769528802465    2.61502259273208   10.88983666517137
H         1.83651257140426    3.69530588254141    7.84558645879595
H         2.03127807824130    2.09927501558274    7.12575860915690
H         2.85627429641825    2.49513139804075    8.63619507255233
H         0.04410370471569    1.04898693448799    6.31363351070790
H        -0.87641967963182    2.55128268616736    6.36295998229286
H        -1.68782154207360    1.01166991387803    6.65418882961526
H        -3.32532227500803    2.01143342614728    8.36949472424875
H        -3.47264733105886    1.45702824745628   10.03626600038844
H        -3.05768932190246    0.31167540716897    8.76565868531174
H        -2.05434953655812   -4.75493567983862   10.05616348932971
H        -0.61733634072373   -4.48710622156919   11.02304401212146
H        -0.47049284309192   -4.80645888800747    9.30686241458926
H        -3.04059046387610   -2.23449541734973    7.98662850584823
H        -1.60242435511101   -2.92628213957476    7.26632530020415
H        -1.67042675966905   -1.20598136978386    7.57819791696651
H        -3.25619214486651   -1.64041007288357   10.88333538714579
H        -1.92015257400918   -0.51580676379935   11.08389109938345
H        -1.98144078072251   -1.98748536561416   12.03216264369462
H         2.98050132845384   -3.35011357119485    7.24846669363060
H         1.57466919678968   -2.40639994608646    6.78495039513835
H         1.36954718350413   -3.98765504661175    7.50601546312330
H         2.79082851213895   -0.10578867290713    8.41528943554776
H         4.06123626615582   -0.95339684717973    9.27208726163101
H         2.80585846321579   -0.12891070411204   10.17880659187200
H         3.61448968245476   -3.80041497616935   10.34682987667207
H         2.00682051972463   -4.47673837900340   10.51036428118418
H         2.51400987668392   -3.16914414452214   11.55832837478897

