84
CSD_code = PURJAN | q = 0 | S = 0 | Stoichiometry = C37H40HfN4O2 | MND = 6
Hf       -8.71809908596806    7.79416609369532   -1.47163523534008
O        -8.71810421913175    7.28143220170635   -3.31850254061926
O        -8.71809819051881    5.86273775138735   -1.62445842334090
N       -10.15552803995591    9.45203663000063   -1.71335594438937
N       -10.34736931697011    7.55957178119315   -0.00893528602875
C        -8.71808992086097   10.20009816530602   -3.57098132251277
C        -9.97484066764515   10.45467390123389   -2.74588916713845
C       -11.19953429337140    9.55820750743188   -0.90064453250650
C       -12.06499378345612   10.67521533454915   -0.93949448817472
C       -13.21668013864208   10.99811382880082   -0.25162469517550
C       -13.93524121310693   10.25621910330706    0.66725146955865
C       -13.60052578419374    8.99038671635088    1.12009619779193
C       -12.48937009532140    8.22402799077546    0.85083698272561
C       -11.35348790858213    8.42016429903745    0.02973614038004
C       -10.37204151421621    6.36875883961401    0.82543761500204
C       -10.00703178393418    6.65677682308933    2.29090291153848
C        -8.71810844549940    7.45948629001288    2.46728742495302
C        -8.71810103913007    5.93646428858155   -3.00208747453485
C        -7.44264450213989    5.25257015331332   -3.58520586356531
C        -6.23125807294238    5.90248405692938   -2.99654870219843
C        -5.48054113445900    5.26615146576349   -2.01384510463435
C        -4.33901458003038    5.85777114486561   -1.50205433552339
C        -3.93628916180312    7.10287145929574   -1.95303664348484
C        -4.68992265115063    7.75700537285471   -2.91195607905777
C        -5.83090071479261    7.16578039727330   -3.42826013237277
H        -8.71809311223626    9.17405919255525   -3.93554143768361
H        -8.71808742344200   10.88419997608333   -4.42396870861662
H        -9.88496838706747   11.45935649168181   -2.30028061067069
H       -10.84855588855820   10.46002686057674   -3.41545717074694
H       -11.76609788463264   11.44854066515890   -1.63147777366256
H       -13.63232585112170   11.97046009609202   -0.49287978966026
H       -14.84456657551172   10.69514787923845    1.05492756328385
H       -14.30925939895424    8.54040123263555    1.80697747473804
H       -12.50499863947053    7.27576052408895    1.36638543834108
H        -9.66302033034511    5.66909960289776    0.38476463102015
H       -11.35479836664453    5.87920431629961    0.79263556347227
H       -10.81766272681364    7.22802521053229    2.74971652100310
H        -9.92642156437110    5.70662009050550    2.82428212353780
H        -8.71810603108963    8.29848110717466    1.76309593707632
H        -8.71811056917957    7.87489061141873    3.47909808682391
H        -7.47350597621591    4.19128524668481   -3.33751401331159
H        -7.46114712050935    5.38000465438907   -4.66881451024458
H        -5.78352980548735    4.28885549136128   -1.66557992286149
H        -3.75224127684587    5.34044659754333   -0.75543101602053
H        -3.04104081960959    7.56185549304500   -1.55979405214970
H        -4.37429212880503    8.72741742214754   -3.26895452886889
H        -6.39189002450216    7.65831682862217   -4.20976882797812
C        -7.46133864739733   10.45466622464262   -2.74588743661901
N        -7.28065973327435    9.45202888661344   -1.71335264660844
C        -7.42918561566239    6.65677493904568    2.29090871959322
C        -7.06417249217678    6.36875269615967    0.82544497924951
N        -7.08883452572720    7.55956622227199   -0.00892757500482
C        -6.08271093790089    8.42015338814217    0.02974568850895
C        -6.23665464941011    9.55819478029613   -0.90063891003202
C        -5.37118796090606   10.67519691208364   -0.93948986261651
C        -4.21950200102477   10.99809061994929   -0.25161707069817
C        -3.50094925860642   10.25619538062331    0.66726510411847
C        -3.83567390422141    8.99036681177686    1.12011296274559
C        -4.94683263396713    8.22401381905931    0.85085168085720
H        -4.93121059338925    7.27574898603613    1.36640444991702
H        -3.12694527792527    8.54037896431064    1.80699786270133
H        -2.59162278225850   10.69511995800664    1.05494330588968
H        -3.80384932412543   11.97043344284182   -0.49287401512797
H        -5.67007665315070   11.44852176048931   -1.63147689484875
H        -7.77319573548989    5.66909723306404    0.38476956142284
H        -6.08141913241128    5.87919120466361    0.79264661715268
H        -6.61855542384641    7.22802267292159    2.74972471219577
H        -7.50979968660120    5.70661929064180    2.82428910863936
H        -7.55120379686960   11.45935010487851   -2.30028028092660
H        -6.58762269263132   10.46001191817403   -3.41545438813451
C        -9.99355606157758    5.25256462059604   -3.58520237642082
C       -11.20494507163021    5.90246289571347   -2.99653315378941
C       -11.95565863247042    5.26610929478995   -2.01384077291377
C       -13.09718867767817    5.85771371057260   -1.50203996120421
C       -13.49992111068425    7.10281943915836   -1.95300090722228
C       -12.74629071606135    7.75697434421050   -2.91190851818434
C       -11.60530924211830    7.16576471057403   -3.42822250302768
H       -11.04432387473064    7.65831717364727   -4.20972401052352
H       -13.06192739793003    8.72738986402221   -3.26889207670297
H       -14.39517273121289    7.56179119111547   -1.55975139592105
H       -13.68395751850514    5.34037326159063   -0.75542395693416
H       -11.65266362657138    4.28881010694483   -1.66558989407088
H        -9.96268458304394    4.19127782250942   -3.33751976223088
H        -9.97506113757631    5.38000816076603   -4.66881013140223

