98
CSD_code = PURNIA | q = 0 | S = 0 | Stoichiometry = C43H50N4Pt | MND = 4
Pt        7.12353489852967    4.88886542562711   10.25685026733311
N         4.80942098009175    4.71484759872100    8.07004541870186
C         5.72029423863655    5.36587972727807    8.83329082030216
N         5.90326217577752    6.55601300700046    8.21003115373264
C         4.44897126957206    5.48713749003073    6.98729970555539
H         3.74889457557819    5.13960246798374    6.25502761096145
N         5.15412514990720    4.75211067562871   12.79924196298974
C         5.14017443328077    6.64244812091538    7.07462568156126
H         5.15378308509719    7.50511631631951    6.44040393457556
N         6.83156859497538    6.08000960789976   12.96472458968608
C         4.11148140225903    3.50158296846033    8.32145011855787
C         4.69681615222311    2.26313152054272    8.05905674724371
C         3.90590138126208    1.12836802198891    8.14204140950966
H         4.34831052984984    0.16583826778366    7.92706675434036
C         2.55674935040216    1.19880746986040    8.45768337868064
C         2.01324760922693    2.43547871388112    8.76610823002209
H         0.97049500444033    2.50886498842988    9.03795635337141
C         2.77613884353587    3.59204676164722    8.71644657734342
C         2.17309476981538    4.91792722973474    9.07238334342466
H         1.24443103183787    4.77372430213650    9.61777544761554
H         1.95937582452719    5.50660105624709    8.17954270961454
H         2.85931201889611    5.48706877544307    9.69673531956436
C         1.71700151907158   -0.04263957311913    8.43795374284295
H         2.16930786720041   -0.82419819111923    9.04719821557526
H         1.64159288252085   -0.42351572100835    7.41899062601150
H         0.71344315828656    0.15641330957398    8.80468744203463
C         6.13726631967739    2.16668244329089    7.68385790843790
H         6.33628014400394    2.72720418731948    6.77103583551605
H         6.43137924629373    1.13237604929466    7.52931870659760
H         6.74989849977785    2.59946742679730    8.47645334068567
C         6.69140739146798    7.62681932676915    8.71045089294297
C         6.20568711164608    8.35956416456603    9.79859716874575
C         6.92588721291898    9.45701568428413   10.23967334647481
H         6.54474000390084   10.03406995599150   11.06918738785231
C         8.10606286023143    9.84513867995192    9.62508088154314
C         8.55344496870834    9.11715288986300    8.53398583713111
H         9.45971624771080    9.42200626161040    8.02967500171002
C         7.85440307373372    8.02192122008286    8.04796174903881
C         8.32632902954643    7.34729079327749    6.79550021025535
H         8.01900544319009    7.92915221690970    5.92452422448790
H         7.91904792146482    6.34619083698392    6.70183061536641
H         9.41170340912717    7.28274431800171    6.78817197086362
C         4.88997567326095    8.00963304293519   10.42742729986587
H         4.09252229882549    8.03120666520952    9.68310342765444
H         4.64585286225456    8.71470356509816   11.21838705231507
H         4.93158270286892    7.00413958481373   10.84728116067661
C         8.85620515821291   11.05867700258933   10.08111670675602
H         9.90147954052139   10.81519015123984   10.25545350974721
H         8.43052505095778   11.45761936991262   10.99800790695327
H         8.81618457065542   11.83447292064389    9.31578486709378
C         6.14162652590616    5.32860941802358   12.07577294764750
C         5.24631832637180    5.12576768437990   14.12187570202999
H         4.57167425002598    4.75548436632559   14.86583207443727
C         6.30570337905975    5.95794469246217   14.22159453632486
H         6.73364996808120    6.43753395036777   15.07669504697584
C         4.12117380735122    3.88108939971144   12.36952587362361
C         4.42288852333204    2.60219051878682   11.89360169604933
C         3.37688085837294    1.71360332731617   11.69092400841517
H         3.60439322106219    0.71340392514515   11.35303765583793
C         2.05943929691879    2.06516971256292   11.93853265761258
C         1.78310687654969    3.36839432564272   12.32357862863874
H         0.75731155664279    3.67150353231352   12.48157535404273
C         2.79684538259373    4.28833178259789   12.54024692957078
C         2.45016632408907    5.68701742245861   12.96382664761109
H         2.36216237633791    5.75495312999887   14.04856948613739
H         1.49367060390844    5.97885689740894   12.53546172679120
H         3.20653779434952    6.39901352627364   12.64098826832017
C         0.95168628782461    1.06180447479050   11.83466868991276
H         0.60145529385254    0.79623158441664   12.83295269799054
H         1.29175687443784    0.15688776251131   11.34034472513860
H         0.10454629968813    1.47042152955225   11.28700406818438
C         5.83414296830730    2.18395846390294   11.64747184155233
H         6.33642579889443    2.90072539458115   10.96340895873541
H         5.86824314712376    1.19284116937286   11.20495874071713
H         6.40110881259195    2.17250190660521   12.57856615895723
C         8.01537126805241    6.77849336060086   12.62113029382156
C         8.97218439884322    6.05038948738306   11.88383096053617
C        10.12825630822275    6.72727577623284   11.49968767856292
H        10.87614679383146    6.19499342963482   10.92888591089227
C        10.34867616393591    8.05062105719298   11.84326593949284
C         9.39592636316169    8.72301103539101   12.59272683565394
H         9.56631218361469    9.75069708809049   12.88054575685546
C         8.21209916886942    8.10392536985642   12.97940850004946
C         7.19602223285892    8.88270882684802   13.76665888197278
H         6.18211163613097    8.55491960140800   13.54442861480659
H         7.27912610185850    9.94308308133889   13.53755333141739
H         7.36553319977123    8.76680574594323   14.83847628958987
C        11.61765039860215    8.72911907619673   11.41689126900702
H        12.48402337939239    8.15914458884627   11.75079162522489
H        11.68511194077157    9.73347777855037   11.82988952441736
H        11.66332074750001    8.79196831873693   10.32955158979549
C         8.73135615395678    4.63435808475983   11.55791984894005
C         8.45162770231214    4.44855111838454    8.72573650899056
H         8.06053047568461    4.41410690353580    7.70167552256566
H         8.98661202915607    3.50313244722047    8.87571794454413
H         9.21616464858996    5.23582372318866    8.73871688567794
H         9.64336999107951    4.17624943652713   11.16736421230580
H         8.43683667258438    4.07613567092237   12.46004638379060

