91
CSD_code = PURNAS | q = 0 | S = 0 | Stoichiometry = C32H54N4Pt | MND = 4
Pt       10.68440277320206    3.18711789447036   15.33168305399149
N         8.45163061168467    2.16490917893780   13.27344219293917
C         9.62463829828171    2.75902201856256   13.57872229271983
N        10.11496147789057    3.20278881947735   12.39837776718048
C         8.21641725433672    2.22854027405904   11.92282453282117
H         7.34447741703743    1.81545922926854   11.45914712370506
N         8.46947448609456    5.43683768073159   15.86837717939078
C         9.26629584168918    2.88047892547982   11.37432563787991
H         9.45997266328402    3.13121650668411   10.35179223445429
N         8.59450773785383    3.88795029174240   17.35028437609269
C         7.58371603955271    1.54511163658023   14.24515915547181
H         8.08228317507915    1.68846124955659   15.21299736251079
C         7.43921776101834    0.04600648367450   13.97386145219213
H         7.02644114899257   -0.10674939156544   12.97366841548508
H         8.42650229984936   -0.41840930980392   14.00736754225272
C         6.51656429846416   -0.59616416864472   15.00435559919768
H         6.41108347840654   -1.66086327737488   14.78810854047333
H         6.95903708121741   -0.50126467667235   15.99810681786717
C         5.14685706502851    0.07603528502889   14.98686911917289
H         4.68486136714353   -0.06939396201158   14.00731019387176
H         4.49680039234662   -0.38417946399293   15.73331593440713
C         5.27822276143820    1.56993019712855   15.26767418421088
H         5.66578325486860    1.71803217979681   16.27722572174160
H         4.29677178340236    2.04642273646988   15.21828614970973
C         6.21428644955386    2.23090613718222   14.26094463007893
H         5.76882222553318    2.17168734226954   13.26478924879261
H         6.34321532044952    3.28728426850676   14.51022132396668
C        11.38718255199855    3.87737435889045   12.25688490153478
H        11.76605853806999    3.99210037868020   13.29037981702206
C        11.24127343233457    5.25407224259276   11.61038165974514
H        10.87240963626191    5.15077954527553   10.58605022531979
H        10.52060964284021    5.85084462715528   12.17129483676650
C        12.59553117717637    5.95651219525968   11.59540587053608
H        12.49565050549601    6.94509320154897   11.14109841033778
H        12.93886278399932    6.08971805899694   12.62335003043956
C        13.61760916238554    5.12761970737576   10.82351969525027
H        14.58906185156934    5.62499335942233   10.84391355102127
H        13.30588336263554    5.04828846678753    9.77864460107753
C        13.73586289736764    3.73113915952150   11.42644817579761
H        14.11046289694424    3.80596940787454   12.44870210112366
H        14.44605140152846    3.13488545895977   10.85033522769671
C        12.37786411239016    3.03741674501828   11.44900697953380
H        12.47222197204071    2.05158946203268   11.90441161173339
H        12.01049689229005    2.90947240332922   10.42688765251720
C         9.15657998250496    4.32296414425994   16.19888937229588
C         7.50004017860869    5.70010652956813   16.80355859689179
H         6.83950251954545    6.54031718687023   16.74321910914633
C         7.58186834531871    4.72406318587855   17.73568217269558
H         7.00146445013442    4.57177722290342   18.62222079585192
C         8.75792105302359    6.24612146611510   14.70920683267400
H         9.56322293385578    5.71863533863291   14.18061012211639
C         7.52890216421409    6.36014548613910   13.80300344293634
H         6.70190271274423    6.79796955820844   14.36727533778710
H         7.22448095972345    5.36148459411261   13.47924297572561
C         7.82072271825920    7.23406214613243   12.58704590445420
H         8.57251291631473    6.74926815880532   11.96159316205545
H         6.91284033110198    7.33908359500445   11.98916507788180
C         8.32495593830497    8.60928825973026   13.01415214411039
H         8.55617036718986    9.20804932251122   12.13118914888777
H         7.53999225085183    9.12633291671262   13.57145962210953
C         9.56538154731712    8.47732453487919   13.89283558613118
H         9.90823991102384    9.46596632940398   14.20335173376918
H        10.37076745932321    8.00988370076484   13.32260464955851
C         9.25865530695610    7.63164798965796   15.12400268297413
H         8.49581575460071    8.13064201619634   15.72684165561137
H        10.15397486247746    7.51636742245472   15.73768051976473
C         9.06337996822040    2.73562686976251   18.08933831569754
H         9.86250378618922    2.29900119412058   17.46020343182162
C         7.96243726332419    1.69941545097729   18.30947970569071
H         7.52462984139399    1.41549709916859   17.35147940555782
H         7.16953042959630    2.12054317627728   18.93395731762689
C         8.55055260234958    0.46906596121323   18.99384149402283
H         7.76957994282785   -0.27962047603592   19.14585980463046
H         9.31502532725197    0.03368071259266   18.34704845164687
C         9.17685503470161    0.84997101417747   20.33174577562469
H         9.61865324269978   -0.03237736663171   20.79848037949847
H         8.40012981760966    1.22774065676911   21.00196010543474
C        10.24358021474393    1.92251834438688   20.13342262657127
H        11.05193494870368    1.52334258428089   19.51848716885650
H        10.66547864457666    2.21223227108629   21.09770017595692
C         9.65444979006276    3.14596695738408   19.43942558649840
H         8.87559791840392    3.58831230748931   20.06701388273203
H        10.43193677131262    3.89350608313306   19.28156109454964
C        12.01423872637878    3.85441925509929   16.78240058553213
H        11.61271142852782    4.60646798371328   17.47608138027572
H        12.85818290239711    4.34313849216578   16.27146583972444
H        12.46020359107268    3.07188158801155   17.40480584359920
C        12.11022502383445    1.76112984808168   14.83084802907997
H        13.13120936215861    2.13940001905223   14.71546046818859
H        11.89303939576944    1.18265073948586   13.92199614231637
H        12.15778208146931    1.02384526504580   15.64725321342270

