103
CSD_code = PURNEW | q = 0 | S = 0 | Stoichiometry = C44H54N4Pt | MND = 4
Pt        4.63707182172143    4.73694421988284    0.70087513373411
N         3.79853153534594    2.78736084152832    2.97334557085973
C         4.78739553113995    3.21195742544710    2.13770946625707
N         5.93131668489889    3.02699985681326    2.85016428027497
C         4.32540566684632    2.39256395595893    4.18447618226469
H         3.70180353152297    2.05775424258367    4.98805676823776
N         3.26975366852852    4.06388209206517   -1.92503009259479
C         5.66087385661600    2.54258122273914    4.10699563188451
H         6.43436927763158    2.33870471509441    4.81818412641304
N         5.38594578570607    3.76645024252361   -2.15737189801802
C         2.42691091508349    2.49412362817933    2.73000268106483
C         2.05249041726908    1.14544681636347    2.76204434423025
C         0.70663270982745    0.81939175301084    2.74269048660298
H         0.41648928668001   -0.22169954462530    2.78002105551247
C        -0.27457673569985    1.80000575433928    2.69159620861141
C         0.12299667042126    3.12105695588286    2.58055941914588
H        -0.62497620147870    3.89569402135213    2.49802221578984
C         1.46182414878286    3.49114378577978    2.58482755388327
C         1.84442204838940    4.92035419779950    2.43008354212345
H         2.29728041690025    5.30673524689677    3.34201075155988
H         0.97851987762797    5.52817507618235    2.18290946384280
H         2.59685043861658    5.01736927051070    1.62448843821209
C        -1.72370173056474    1.41894674536356    2.74017761557607
H        -1.95412178706800    0.93728356133578    3.69022573843152
H        -1.96356690305732    0.71146814532827    1.94673340557105
H        -2.35956127947003    2.29383444447042    2.63403292409668
C         3.07783879853098    0.04813247182281    2.79667137809807
H         3.41438848003460   -0.14941568332137    3.81452342169572
H         3.94817974103790    0.31133550471022    2.19837218874149
H         2.65225360098869   -0.87184859852326    2.40201505667057
C         7.26590218874757    3.13940887449212    2.38670621635947
C         7.69667229999970    2.27173600966226    1.37588973072851
C         9.03392138686853    2.26599585875510    1.02353929935267
H         9.37092588033255    1.57230863683471    0.26835478309603
C         9.95147772336385    3.10980021835840    1.63551351281483
C         9.50086669318150    3.96275060958818    2.62705821671182
H        10.20085730870923    4.62002474290177    3.12394082800748
C         8.17241813808868    3.97829386661258    3.03436169439463
C         7.78789272848952    4.86022887211745    4.18458740948344
H         6.71457239493605    5.00307113592840    4.24487303706128
H         8.26128423899015    5.83451269602838    4.08145799263733
H         8.13337244831776    4.42160350151096    5.12231547294264
C        11.39625770066377    3.08015806983917    1.23849762875781
H        12.01220226956227    3.59612813201489    1.97098039932338
H        11.53207251807942    3.56681994637163    0.27344840200752
H        11.74694312839901    2.05384101835343    1.14529411858783
C         6.73859471705395    1.32062328002596    0.72734904525068
H         6.29593217956001    0.65708248925336    1.47190657520023
H         7.24752810645755    0.71853376731726   -0.01990174016315
H         5.93464116465854    1.87438242158324    0.24443322710482
C         4.41456465518275    3.89409268051653   -1.21051663337551
C         3.52480159326974    4.08462501703074   -3.27471448988518
H         2.74837883291554    4.21543912223324   -3.99977993503571
C         4.85004265571527    3.89846212924107   -3.42058695751221
H         5.46166573248627    3.86245984403203   -4.29883822842469
C         1.94048899775720    4.06757299777022   -1.43351109633887
C         1.44961676240347    2.90483086615540   -0.83046240141845
C         0.11254190687708    2.84624290408542   -0.47607465784111
H        -0.27133370202645    1.93659206001599   -0.03998804122557
C        -0.74141945900038    3.91778040354980   -0.68779888233941
C        -0.23224191985207    5.05895509369029   -1.28584950942259
H        -0.88805272577643    5.89841424091429   -1.47067336560420
C         1.09322717685953    5.14736431207706   -1.68779590707037
C         1.54000760297554    6.37803878350689   -2.41893194879044
H         1.17342016578488    6.35415412747331   -3.44658906228648
H         2.62054976854388    6.46747208109900   -2.43990038851392
H         1.12855576306464    7.26516053719371   -1.94186235304719
C        -2.18815582688242    3.84913619645921   -0.30232774633079
H        -2.45516896213528    2.84776401607673    0.02386731892891
H        -2.82173230511844    4.12511186005443   -1.14406699551834
H        -2.39659120997341    4.54626096812560    0.50897970727826
C         2.34000426006077    1.71868545229035   -0.62136579529656
H         1.78758054507453    0.90499415638370   -0.16021399481608
H         3.17306757197994    1.98874525294687    0.02620006849676
H         2.74643433119192    1.37292510768452   -1.57312996234393
C         6.73532307812601    3.32371502819902   -2.06030454274342
C         7.03341066579773    2.07249078096783   -2.61133702152729
C         8.35912191625236    1.68703165401559   -2.73185368731412
H         8.58837759816351    0.72516951621206   -3.16965743994735
C         9.39315302247533    2.51475299676731   -2.32000607638915
C         9.06843036246406    3.71393921975061   -1.70740961167730
H         9.85753158717221    4.35831731604235   -1.34816060523539
C         7.75397695923078    4.13269310417166   -1.55409577897238
C         7.45168044313298    5.41294292744734   -0.85974222564651
H         7.02926074390817    6.14330921546142   -1.54827429110678
H         8.34828054766224    5.83073718983334   -0.41043051288624
H         6.69891420455066    5.23559372939012   -0.06829723124196
C        10.82204680352423    2.09745093484577   -2.49765354338468
H        11.47070850666582    2.96616364278432   -2.58400108640709
H        10.93760035229556    1.48200785127485   -3.38729036212435
H        11.15531672953320    1.51237281170023   -1.63966934386846
C         5.94887051059500    1.13372675185852   -3.05754624772249
H         5.08342274052344    1.20004842578864   -2.40084093188538
H         6.31452364314311    0.10932932398524   -3.04526852916827
H         5.62135509641595    1.35909632081194   -4.07257773144416
C         4.38321393261186    6.53148691122301   -0.33027105925921
H         3.35476527574225    6.88613562793926   -0.18320034996041
H         4.55166147310049    6.48807357205398   -1.41520286026464
H         5.03653511893036    7.32844994680499    0.03615620315969
C         4.98274509403552    5.97668491042099    2.34152652574016
H         4.79677401835042    5.52945209934540    3.32778878499622
H         4.38432837987365    6.89186969070991    2.31700984614115
H         6.03284349703301    6.29674177452790    2.33172205944176

