50
CSD_code = PURVUV | q = 0 | S = 0 | Stoichiometry = C22H17Br2N2O6V | MND = 6
V        11.75570292130889    8.51210010047669    8.19677075055393
Br       14.97507147495118    5.70023183717015    9.23672139832348
Br       16.77851947141205    9.13408089272351   13.40499736854356
N        12.25739800220464   10.32834633330985    8.89287403388101
N        11.47557675165501   11.31264534124853    8.47132138383236
O        13.37327858326935    8.08762208423595    8.60993034776608
O        10.58848094746316    9.62708600730765    7.28553075431943
O        11.43792917929975    7.25345613192365    7.08908524492480
O        12.99551323307773    9.19787389312403    6.20383500861392
O        12.20191700891417    6.01604639979079    3.82721646495854
O        10.96008442900102    8.21554489027880    9.46083135883761
C        14.00936865751409    9.56679782400608   10.33417043453350
C        14.08011506104671    8.31596260330247    9.66498914077695
C        14.96257928689243    7.34471821672948   10.16439426250900
C        15.75750106823018    7.56602951078436   11.26590232398084
H        16.42190066276669    6.79782706294830   11.63026051546589
C        15.68010517119708    8.80659762442147   11.89227850203341
C        14.83088342868514    9.79598236749116   11.44334659250894
H        14.78580559761187   10.74733620097455   11.95156865020772
C        13.11854472236406   10.56613237179626    9.82565257478466
H        13.16110886195298   11.57090264737255   10.24731527913685
C        10.58060114279022   10.85501246161689    7.62057480805959
C         9.58017339673293   11.77367310733286    7.06401358035382
C         9.60632550226979   13.13063338515482    7.38066836394586
H        10.37570862220877   13.48848717661824    8.04651723810177
C         8.66367231001474   13.99634025639772    6.85040893503934
C         7.68886812636591   13.48512506745038    5.99688157187307
H         6.94795973426257   14.15263812982994    5.58046013959499
C         7.65561435245704   12.13819992244457    5.67949195159395
H         6.88976610191656   11.75990523985351    5.01854777789163
C         8.59797784454770   11.27730476360647    6.20892622856941
H         8.58576762051655   10.22177422938989    5.97867992904635
C         8.69197005802407   15.45925162606009    7.17187139007261
H         9.34706951238429   15.65792992645701    8.01542640604260
H         7.69267343399099   15.82014917492672    7.40678492892284
H         9.05652512224512   16.02307213264242    6.31323099066531
C        11.90506522077282    7.15776079046112    5.88260978781862
C        12.75848568165237    8.26173391253767    5.43287535025146
C        13.26412564608762    8.12056316153557    4.09089184370592
H        13.89261441128252    8.89252915126159    3.67820938231764
C        12.95651937162168    7.01574543643291    3.37759610493026
H        13.30323648602451    6.83872533973104    2.36909844710183
C        11.67405618804986    6.07569129820961    5.06509698707508
C        10.89166074905263    4.87490542865147    5.49654217828104
H        10.81866213200975    4.18597573840047    4.65367789711549
H         9.88730240585824    5.19432793469413    5.78678433949940
C        11.55512142221828    4.19187236563823    6.69726224940285
H        12.56485600702247    3.87161226643475    6.45097880456187
H        10.97483994876285    3.32179234608041    6.99145134453648
H        11.60229692804148    4.87934788873417    7.54114865313326

