33
CSD_code = PURYOR | q = 1 | S = 0 | Stoichiometry = C14H14AgN2O2(1+) | MND = 4
Ag        0.90518596137720    2.81598778620496    2.84802425382395
N         1.43172779787828    3.60665785989591    5.02598745222251
C         0.41974168772450    4.23389360185178    5.64339330027939
C        -0.82707788515082    4.37861443506365    4.83261882905590
O        -0.99467661671804    3.69027499159530    3.84169456558166
C        -1.84568978733889    5.37491266761994    5.27990582528676
C         0.53115925200851    4.70308126114019    6.94886683978640
C         1.72503554690886    4.51741640385791    7.62961054877694
C         2.76672059342202    3.87313768562459    6.98296119011865
C         2.57034068953045    3.43472189961252    5.67998000604214
N         1.35392047641342    0.97350947656900    1.42364280927964
C         1.55290806976217    1.30912452418347    0.14043309210451
C         1.36506011436743    2.75759397070874   -0.17355470561872
O         1.39698414183369    3.58467722620932    0.72031269983420
C         1.14958240682028    3.14579361207248   -1.59934148189153
C         1.91877473438823    0.36958403012965   -0.81884009136379
C         2.07964177479101   -0.95335470503212   -0.43560498815203
C         1.86506204337844   -1.29304749067626    0.89004829046136
C         1.50458964347776   -0.29244089902676    1.78281136637418
H        -1.38487005876342    6.33806947358606    5.48594372306278
H        -2.60647898671313    5.48508585083817    4.51129687820966
H        -2.32578842727998    5.02420012008433    6.19281633096095
H        -0.29842966508459    5.19206475654706    7.43204892421889
H         1.83721369671029    4.87063848652699    8.64297262644127
H         3.71409140970861    3.71312460843416    7.47145804524743
H         3.36125644552576    2.93266265598130    5.13912744900790
H         0.84128516418752    4.18704533409801   -1.64874577178888
H         0.39987016078422    2.51323103143774   -2.06841239415007
H         2.08216876815918    3.03724737261888   -2.15231348641938
H         2.08942274408904    0.66361381775092   -1.84128595462101
H         2.36469861459617   -1.70151237577021   -1.15901887793196
H         1.97077745162552   -2.31031766149786    1.23021925559624
H         1.32239203758559   -0.51859180824365    2.82484345016248

