35
CSD_code = PURZIM | q = 1 | S = 0 | Stoichiometry = C16H15AgN3(1+) | MND = 3
Ag        2.28554518466088    0.56106948823012    2.78553281757663
N         2.62936978130647    1.39218375661017    4.73111843495440
C         2.80683240034494    1.82460967728615    5.77944419521278
C         3.02551286347067    2.36064311582757    7.07448181227453
N         1.84542410765373    1.07400407240977    0.54520224482385
C         1.70934950734277    0.00789389226598   -0.26801104260221
C         1.43994519337145    0.15104020515490   -1.64665844376183
C         1.31631249935214    1.45914842884076   -2.15177495111310
C         1.45866789520647    2.52421939124590   -1.30399426672484
C         1.72642578078614    2.29351186214862    0.05760500941546
C         1.88298603519171    3.44193098206442    0.99530917191501
C         1.30307352358218   -0.99919647699225   -2.47117761771161
N         2.10012048823177   -1.45002707859975    1.59990427883189
C         1.84226234404428   -1.31335480256347    0.28416673144602
C         1.69886092571697   -2.43029681631884   -0.56769225914584
C         1.83488596939974   -3.70771456200119    0.00778956138939
C         2.09734085814698   -3.81817740453587    1.34658749785651
C         2.22603446138500   -2.65329297369683    2.12451202124356
C         2.51279704018694   -2.75534776860273    3.58408825122230
C         1.42769950699963   -2.24376613205994   -1.95091330965138
H         3.62363697650384    3.26925341984564    7.00030770264429
H         3.55329258407857    1.63220931221881    7.69060684138548
H         2.06795443706830    2.59766978235591    7.53900462457055
H         1.11062064781271    1.60531893986985   -3.20157675856000
H         1.36910467731787    3.53784312597478   -1.66119154703083
H         0.97158518784305    4.03702970492198    1.01699700298618
H         2.69497129655066    4.08887798831682    0.66811188144674
H         2.09811260691888    3.07698634577586    2.00611955657069
H         1.09743118639028   -0.85358905627009   -3.52063350311939
H         1.73053081670002   -4.58403456728582   -0.61424347867153
H         2.20741493266891   -4.78261867963679    1.81638110826922
H         1.72406523658011   -3.31389363190969    4.08531125688714
H         2.58180664934809   -1.75466768805632    4.02561045130041
H         3.45050540811023   -3.28378877580564    3.74780298732049
H         1.32432098972684   -3.11927707702762   -2.57352826344732

