43
CSD_code = PUSGUF | q = -1 | S = 0 | Stoichiometry = C15H3F18NiO6(1-) | MND = 6
Ni        4.76019802492465   -0.00047658752913   -5.77396535606380
O         4.75889711719800   -2.00018449241789   -4.51391056748763
O         3.38515802108460    0.61445042836259   -4.61255125890945
O         6.05979104343834    0.57995935328267   -4.53297419465803
C         3.95161408938952   -3.48188539237540   -2.82778144706454
C         3.94831494430147   -2.13162434777805   -3.60073551916458
C         2.98780246930883   -1.22418102632119   -3.11594046574630
C         2.80890418691772    0.03682412340645   -3.66729688924279
C         1.68476648489321    0.85943643966702   -2.98712779449211
C         8.16497068695800    1.04130405923582   -3.53057213778165
C         7.29143442803446    0.50788729774728   -4.68674680072596
C         8.00282749671286    0.00007861938226   -5.77437990480156
F         4.20030343054387   -3.30803638892341   -1.51422079385322
F         2.76277153358250   -4.10938837171878   -2.89460512931781
F         4.86698938733549   -4.33959792646054   -3.27925179393577
F         1.52103850933874    2.06540980058801   -3.52492864304191
F         0.49411411181951    0.23598342710571   -3.06072664466398
F         1.91903552101790    1.04459562628084   -1.67557978260457
F         8.96297310753461    2.04554011821179   -3.93201173196621
F         8.98605862912730    0.09018030087369   -3.05070940396319
F         7.45343257121925    1.49432438301790   -2.50313926292616
H         2.36172452004495   -1.52285941520100   -2.29116027874064
H         9.07910291184317    0.00041983323937   -5.77454477411188
O         4.75945872470173    1.99950895864899   -7.03353645560892
C         3.94868215471060    2.13134863867904   -7.94647914776975
C         3.95190366217744    3.48191683790440   -8.71888478791505
F         4.20041190448587    3.30857980663931  -10.03254682572144
F         2.76309327366716    4.10942850419750   -8.65164934153579
F         4.86737240247301    4.33941505796726   -8.26719676235368
C         2.98799932503817    1.22415138584619   -8.43139606820069
C         2.80899602132133   -0.03699778336232   -7.88039641720651
O         3.38522424177002   -0.61499366640574   -6.93534522066433
C         7.29142124022705   -0.50815358806610   -6.86180293973936
O         6.05977360959013   -0.58094535490256   -7.01520111728182
C         8.16493239560282   -1.04109671614898   -8.01821893070300
F         8.96321539417788   -2.04524526967582   -7.61710108046652
F         8.98574039115398   -0.08968733390724   -8.49798471844202
F         7.45336287051384   -1.49406200733104   -9.04565657978679
C         1.68475879759423   -0.85928323636485   -8.56079190403048
F         1.52075523677683   -2.06531301778025   -8.02320707237898
F         0.49422029465113   -0.23562056687395   -8.48720300134650
F         1.91911870061643   -1.04426864675722   -9.87234833986088
H         2.36183613218091    1.52315813601675   -9.25599271372096

