37
CSD_code = PUSKIX | q = 0 | S = 0 | Stoichiometry = C10H16MoN2O2S6 | MND = 6
Mo       13.74736402393031    2.45914806238969    4.40686618192500
S        11.41676841776396    3.23291194919034    4.11242904734854
S        13.40409045660472    3.62351071936102    2.02675917880347
S        16.11341537451835    3.00560842158390    4.20614896730687
S        14.24451683269990    5.08641388177725    5.02397054027733
S         9.07782289346550    6.05067667306922    0.41430752864331
S        16.03347124776318    2.90695082768167    9.29942836212283
O        13.56353639556828    1.08216996222786    3.54421923767522
O        13.74123469660483    2.31785322693887    6.04444506701529
N        10.79315289297048    3.71238750364187    1.55948745400589
N        16.29288247881293    4.32203067792423    6.53386590430924
C        11.77072113717790    3.53403750686888    2.43959786235110
C        15.60411593747817    4.17029822158428    5.41284341754769
C         9.40341867296959    3.79528445493328    1.95307270970573
C         8.97330344056330    5.25482424003710    2.04939620219934
C        10.82807923615737    5.65884153165247    0.09746887179308
C        11.06396894914304    4.15687323002695    0.20791805603031
C        15.73025653985157    5.07380068543915    7.64180192666211
C        14.92861976247906    4.13672870367712    8.54056940756639
C        16.67325891814506    2.23926203099210    7.73272589803167
C        17.31223595898506    3.36623785857058    6.92448304828203
H         9.27719527343741    3.30231714195556    2.91925019195436
H         8.80159381770920    3.27949479954299    1.19920065044891
H         9.61076659819604    5.79798390244563    2.74770096453035
H         7.93519587382259    5.33358981112408    2.36351958691633
H        11.44457398665218    6.19852521847261    0.81710654606600
H        11.04487858172101    6.01232968286085   -0.90793037651327
H        10.39549781765905    3.62185951399450   -0.47210730362160
H        12.10077911439014    3.92141718206423   -0.04059295206072
H        15.08602224191489    5.86022206981112    7.24248827466363
H        16.55391242864960    5.52622879269233    8.19969724290524
H        14.17223802752476    3.60260261184263    7.95975817728386
H        14.45502006358253    4.68289205553896    9.35271341904672
H        17.40390264392670    1.47527262184999    7.98734713992551
H        15.84209328886336    1.78812847620738    7.17864339029309
H        18.05379091803570    3.89211279312263    7.53194811044211
H        17.79440506025875    2.97027295695893    6.02795206812111

