42
CSD_code = PUSKIZ | q = 1 | S = 0 | Stoichiometry = C18H16AuClN5S(1+) | MND = 2
Au        7.17324225157375    6.36032702492599    0.53318272679749
S         8.83375401776880    7.20869163372469    1.96436312234453
Cl        5.88251152771819    5.14248359594199   -0.88917850378383
C        10.05910902242673    6.05445790639900    1.84247550654277
N        10.72377308423584    4.05944460900154    0.75078285238312
N        11.10233599228922    5.92591109822876    2.66410746996496
H        11.71425412688766    5.15184884863352    2.41612640517672
N         9.98868858125519    5.15436745464143    0.82057927405280
H         9.34452558947430    5.34373486629738    0.02298895469900
C        11.50898238449931    6.61432377800287    3.81690565444542
C        11.44245618969802    2.09801614589801   -0.25419674420471
C        10.56515871894445    3.24423374889700   -0.26687925793688
C         9.57648515600240    3.42750906713901   -1.34067093102017
C        11.79500907871950    1.34869560513554   -1.38409150020222
H        11.39552603992156    1.62592042187950   -2.34598179136242
C        12.87072424618322    0.73927230739967    1.07213574544564
H        13.26205168344075    0.55623215915384    2.06127974515760
C        10.96791061397010    7.82288713617089    4.24144509291428
H        10.18865787366028    8.30531349853082    3.67993034097419
C        13.01154636165027    6.62714166888509    5.69975549290435
H        13.80685815051647    6.16144694989860    6.26064018642268
C        12.46260523089123    7.82585878900825    6.12933019973901
H        12.82822972628086    8.29627185757646    7.02808720485874
C        12.54185431796202    6.02607778041746    4.54960371374350
H        12.97434964315915    5.09294625342853    4.21432614577388
C        11.44867824141174    8.41728731126381    5.39535331137208
H        11.02525743515447    9.35548533468669    5.71729021980719
C        12.67295600260774    0.29326534320890   -1.26278531294644
H        12.95079408948275   -0.28181131267599   -2.13203001640702
C        13.21656638762179   -0.02706562904320   -0.01109884297289
H        13.90083671945599   -0.85128802905598    0.09996638595852
N         9.25291737204889    4.69426460830209   -1.63762732011479
N        12.01229440202637    1.75883317864650    0.92815468278897
C         7.98318081280022    2.60369326084219   -2.92214674626290
H         7.46416932603880    1.78599836741704   -3.39804104220531
C         8.93924075610553    2.34746648678684   -1.95034318714680
H         9.14810818149986    1.33462140001725   -1.64115568496145
C         8.34914114387689    4.92782873155104   -2.56983206666909
H         8.14348496260968    5.96939617821273   -2.76789303202955
C         7.69658778730842    3.91469291655644   -3.26109888696217
H         6.96186461777882    4.15347834287320   -4.01098615276813
H        11.75552215308638    2.34753930510683    1.71722658566644

