40
CSD_code = PUSWOR | q = 0 | S = 0 | Stoichiometry = C16H18Cl2N2OZn | MND = 4
Zn        5.78147315576843    1.02570342520406    3.25819041242142
Cl        3.86312636147932    0.42805907647239    4.10764033646310
Cl        6.33192500292226    2.69058468044659    1.88348054094305
O         5.45319895285809   -1.04510584779346    1.10598536859611
N         7.08027611525208   -0.36407798263756    2.42005423942247
N         7.56682198040342    1.15179536616446    4.56438277623472
C         8.34963170006203   -0.20163353934555    2.79117951554706
C         9.38596020718814   -0.80224349279507    2.08451556980678
H        10.41015837308922   -0.66780862465772    2.39196614451639
C         9.06356962754856   -1.56380812620859    0.96964455571760
H         9.84381302484117   -2.04225326242964    0.39713940441853
C         7.74568336058913   -1.69887437877512    0.57536079661213
H         7.48973081383492   -2.26942298690747   -0.30169125261451
C         6.76021476863157   -1.05865409585013    1.33995598407435
C         8.56187481038072    0.66719812412855    3.93310240982603
H         9.59367787912285    0.87139228996309    4.21759319295776
C         4.93185213140448   -1.70115622388510   -0.03247279044259
H         3.85798224284090   -1.52978052752118    0.00197802621403
H         5.13100487357586   -2.77591454897504    0.00433234976885
H         5.33965413106286   -1.27645262535075   -0.95386553184862
C         7.71782145296095    2.06355437902060    5.60212897392062
C         7.02223089503115    1.80406068066056    6.79729334840060
C         7.11527451477057    2.71179773110922    7.83443552699365
H         6.59449223544707    2.50868727387666    8.75904354203011
C         7.85213950831220    3.88511543202936    7.71283534055547
C         8.50867528985770    4.13186166666870    6.51769019817991
H         9.06634082471878    5.05011891357203    6.40030531910914
C         8.47105602228740    3.23964112411655    5.45525758532857
C         6.24336433609745    0.53792689067565    6.95047533610396
H         5.79882998714683    0.47952584190221    7.94014277404580
H         6.88243107385398   -0.33150538769888    6.80043756764249
H         5.44665519165175    0.49183640267352    6.20772633497488
C         7.91606920084760    4.85447152105987    8.85142626615499
H         8.52292325589121    5.71909987775929    8.59629436682102
H         8.34180003092036    4.37585657223205    9.73259397748596
H         6.91483035244001    5.19518140858708    9.11133178006745
C         9.14741773554820    3.60782064771141    4.16823028791986
H         8.59415814475649    3.23367225637392    3.30822019578524
H        10.16347167212643    3.21411914385680    4.12858504693775
H         9.21028876247328    4.69021092453212    4.08557418289081

