89
CSD_code = PUTCUD | q = 0 | S = 0 | Stoichiometry = C34H42Cl2F6N2O2Zr | MND = 6
Zr       11.06124898449552   11.23067904809825    9.71107594493552
Cl       10.86595796062941   10.38092623946393   11.87905494352920
Cl       12.48511811899743    9.44010074131744    9.23801288451248
O         9.73407704566839   12.65620534640944   10.07620651778049
O        11.35851518640582   12.01977391977015    7.91759859524382
F        11.72799352762793   13.17727373131847    5.23652039411658
F         7.86348397307610   14.84492883996529   10.60810921335747
F         9.76918611140542   13.11572590708082    6.12608498869500
F        10.87880649407151   14.96075529398587    6.07770002147931
N        12.52893936875031   12.80676442745719   10.27681345116152
N         9.29179688946885   10.31051641004705    8.71995992920042
C        12.30856126774521   13.16232334162932   12.70070995362738
C        12.98822728609619   12.59347866488578   11.60982515600922
C         8.27236521877623   10.91999939262209    8.20535841587847
C        11.12622571913142   14.09084990329607   12.52801524613282
H        10.95235334841751   14.25646204792349   11.46007484159027
C        13.56460596469969   15.04195439937239   10.26747725781194
H        14.02794725911884   14.73743579695070   11.20279715737289
H        12.90916747610022   15.89223492992760   10.45041989501498
H        14.33066269359823   15.36201341727241    9.56350272564027
C        15.34031039769519    9.80811033226765   10.81741763015469
H        14.49433032842398    9.20421004844627   11.13421465641870
H        16.13601924706741    9.72709762139929   11.55393331925958
H        15.70376403759357    9.40789653196312    9.87478249084983
C        14.52320239301864   11.50980357462935   13.10369134314725
H        15.38655695228945   10.88646264859878   13.27038874623436
C        14.90448834543811   11.26106860216144   10.62307258448777
H        14.26975781049315   11.30610107841617    9.72419332450956
C        11.57915758938992   13.24788697876862    7.62186373290047
C        12.24648879619194   14.18072123352281    8.35364885593667
H        12.38409233276482   15.16929421330178    7.94707918900580
C         7.27037283102187   10.24681783647331    7.31283848605316
H         7.43944520880671    9.17371717359895    7.26739591851631
H         7.35000206640515   10.66679044882692    6.31121783409503
H         6.26332594721531   10.44644343668073    7.67463347253739
C         8.77664956953371   13.05052688630978    9.31947634694190
C        10.14009937906664    8.58906565161423    7.18044985859646
C        12.75997080107501   13.92536649906806    9.66754465541081
C        12.74886707804086   12.85176131317506   13.98046222130455
H        12.22793161325090   13.26249685110616   14.83083538644075
C         8.02950713040441   12.31047039182537    8.45654065773558
H         7.22653679580864   12.78334064754404    7.91524555148180
C        14.11234484088690   11.77667343667378   11.80501702679651
C         9.56109763688330    8.94521840829869    8.41079852409700
C        11.00107732135046   13.64156234727626    6.26108666985161
C        10.46210303774432    7.25463711983904    6.97116441938075
H        10.92523718991877    6.96412835489401    6.04147834921728
C        10.41988377519317    9.59985099803772    6.08943885765323
H        10.06100149146501   10.58301006227829    6.40975794037707
C        10.20068527565906    6.29370974615395    7.92771718043329
H        10.46339986681075    5.26306559655764    7.74362184221548
C         9.59253892538453    6.65076333644241    9.11560125394082
H         9.37048621844760    5.89198573726271    9.84812720135396
F         9.65090889103265   15.22782944792880    9.47204601550696
F         7.74889040754459   15.06167473492657    8.47505914925706
C         9.26609885981332    7.97367785208873    9.37957901075032
C        13.83918917397598   12.02964694925714   14.18537684871022
H        14.16110826743985   11.79964262619427   15.18967263186488
C         9.85580482245748   13.46959944584824   13.11650184350883
H         9.96454441361376   13.30515120976376   14.18543984830605
H         9.65129355338812   12.51170783895240   12.64063659404085
H         9.00893921956700   14.13218420788108   12.95109120402160
C         8.48948322433934   14.54665369452651    9.46201823158346
C         8.53333552968267    8.35160604208106   10.64885569305902
H         8.65718355965076    9.43247846225347   10.82096931667040
C        11.39621840727297   15.44903472705650   13.18577314293224
H        12.34214134244627   15.86979198702665   12.85260204308023
H        11.43098623135643   15.35410739737460   14.26792729158557
H        10.59946666626647   16.14461309441149   12.93257880092960
C        16.12825945248398   12.15623319046426   10.39472422362921
H        16.71363745344830   11.77766881138164    9.56024717711713
H        16.75825740622351   12.16879920873415   11.28191719690846
H        15.83019299863666   13.17787420251259   10.17051577928421
C         9.08394344827382    7.61599083298770   11.87116438232498
H        10.16712031752946    7.69680021436563   11.89891283816618
H         8.80108805547491    6.56618918797635   11.86357177766253
H         8.69042666189720    8.06984299251252   12.77676941234937
C        11.92417033837751    9.71710494289236    5.82591612770078
H        12.33146389055167    8.77048690986839    5.48024156189398
H        12.44461103348464   10.00193882758431    6.73886936125826
H        12.10853571304501   10.47329321376544    5.06575681209673
C         9.69190713743832    9.22147793404683    4.79421684205718
H         8.63487651300914    9.03697461044557    4.97166052415191
H        10.12281617265982    8.32426008882419    4.35764322198962
H         9.78605001543376   10.02815546156642    4.07091478000068
C         7.03738714394961    8.05827056336611   10.48282793695623
H         6.88136025122781    7.00362121440548   10.26480338022808
H         6.61072203366129    8.64367400354262    9.67160343310463
H         6.50750926827866    8.30388692902802   11.40004250487768

