53
CSD_code = PUTCIR | q = 0 | S = 0 | Stoichiometry = C22H18Cl2F6N2O2Zr | MND = 6
Zr       -0.40018495992767    0.64970363341740    4.56364624412821
Cl        0.96444005938533   -0.89348794846041    5.67707282979828
O         0.91730376750665    0.69516974448913    3.10909318746253
F         4.16534545561014   -0.04850152070317    2.36680005162975
F         3.30216359496077    1.52938457570991    1.19700540083491
C         2.15669996669055    2.18066010405413    5.36003382842800
N         0.85881040999318    2.20197661179610    5.43147829850339
F         2.33212802556379   -0.39030308948063    1.28372394860299
C         2.80713908114546    1.65844179112660    4.20107182667832
H         3.87794522240873    1.76849261707176    4.13213544945236
C        -1.56976075767955    3.82187101396982    7.68969410663622
H        -2.31044656911591    4.60632932701770    7.65618179134571
C         0.16550761311231    2.55071713307209    6.61055723053076
C        -1.41165291835075    3.06776080955236    8.84132890278140
H        -2.03552466877012    3.25932216598622    9.69991731692671
C        -0.79280953120480    3.56546450184399    6.57319715112164
H        -0.92093044311810    4.14552489403485    5.66773672729296
C         3.04134927679372    2.73279924025943    6.43752610541612
H         3.85750046937764    3.30216115030503    5.99988863934003
H         3.47589105303157    1.90313969782756    6.99391877287005
H         2.48043034669808    3.36053751846980    7.12600574491064
C        -0.46806118312344    2.05302696608901    8.87829971122258
H        -0.35529755999449    1.45181229581226    9.76726354133861
C         2.16044799990824    0.97488252722035    3.20817511475665
C         2.99623592859801    0.49970820356548    2.01438225116791
C         0.32493495458385    1.79194393229066    7.77525591208635
H         1.03344604272926    0.97262238438163    7.78056027307862
Cl       -1.76422684179177   -0.89359630047649    3.44966280000665
O        -1.71781853441761    0.69524121063477    6.01818686512136
F        -4.96836701320215   -0.04476525966692    6.75873751466282
F        -4.09871561079496    1.52752882992992    7.93275469275450
C        -2.95708098823135    2.18033593234069    3.76666832949642
N        -1.65921472205032    2.20169746688527    3.69524602519798
F        -3.13483761528332   -0.39601563751530    7.83969982268298
C        -3.60756203044266    1.65792047405835    4.92547697274321
H        -4.67838598106233    1.76803917119670    4.99436421202105
C         0.76977429826361    3.82114731138569    1.43716706914155
H         1.51064313354432    4.60542160086323    1.47072065481243
C        -0.96593671949526    2.55045661920352    2.51614134257956
C         0.61202853726751    3.06663556943398    0.28573992885855
H         1.23639963628859    3.25768210133122   -0.57261583664578
C        -0.00759233195604    3.56518347634228    2.55347733782800
H         0.12036044189941    4.14544491455691    3.45883672086661
C        -3.84173305063094    2.73279007871725    2.68935330899021
H        -4.65797152058888    3.30197522003478    3.12709940295435
H        -4.27614900080367    1.90319020574143    2.13280942992845
H        -3.28084521196861    3.36069487783773    2.00099892489396
C        -0.33170492102496    2.05205409809195    0.24875351333679
H        -0.44419091756493    1.45054222627295   -0.64002344791266
C        -2.96104534775963    0.97431139972198    5.91846388731841
C        -3.79691309786270    0.49867543222947    7.11212333084939
C        -1.12511584425457    1.79142150563692    1.35159898305954
H        -1.83364942287897    0.97212719449075    1.34630785611068

