31
CSD_code = PUTKOG | q = 0 | S = 0 | Stoichiometry = C13H12Cl2HgN2O | MND = 4
Hg        6.91994466977087    0.74003843481684    2.84539178389269
Cl        8.77979342672415    2.00848689009146    2.45114711759281
Cl        4.78428206543318    0.48735545638333    3.60197479362874
O         6.11681186622610    0.63299073376356   -0.10094183350574
N         7.00893484672624   -0.96579419674463    1.13135755893423
N         7.92985471488080   -1.56885368322094    3.60816840383312
C         7.47614385133389   -2.19340877880161    1.36250686816019
C         7.49188572124592   -3.15991339880509    0.36132581672917
H         7.87439057394443   -4.14829019586671    0.55873424577171
C         7.00050174447849   -2.81921684053691   -0.89111611438030
H         6.99571662459500   -3.54704726409288   -1.68862679336108
C         6.51420444639035   -1.54684898414042   -1.12169233201271
H         6.12849225021030   -1.27324355462670   -2.08951579378862
C         6.53889018476395   -0.63097243889587   -0.06043623331820
C         5.57720200731191    1.15616171886750   -1.29958377684238
H         5.31278882158612    2.18720808543130   -1.07446194706576
H         4.67993351479604    0.60822796959337   -1.60046072516420
H         6.31576968552912    1.13804454453563   -2.10591181849226
C         7.95814676186720   -2.46815271852319    2.70840013568523
H         8.35248987055773   -3.47247489855397    2.88554280667750
C         8.33139541261805   -1.79545338092302    4.91424660087024
C         8.16099267105512   -3.02187537758628    5.56290398125480
H         7.68084168935411   -3.84117000284086    5.04811465883411
C         8.54671083680711   -3.16304374122224    6.88177886788423
H         8.39647662698960   -4.10738167974453    7.38379195880575
C         9.11735905128194   -2.09940619042443    7.56283825715681
H         9.41815585467533   -2.21777564518438    8.59278298174124
C         9.28389090354913   -0.87827167926229    6.92597325808243
H         9.71831597829089   -0.04568367092956    7.45807115237412
C         8.88149619905131   -0.71924180306619    5.61583498214915
H         9.00608712800252    0.22690629052057    5.10356113788969

