37
CSD_code = PUTKEW | q = 0 | S = 0 | Stoichiometry = C14H14BrN4O3Re | MND = 6
C         0.86084590219657   -0.02861988592704    6.99388806578530
C         1.86415076262846    0.77459281120132    7.48125316725516
H         2.75717022308444    1.15140130453754    7.03381599647871
C         2.10946032878004    1.76903637890884    9.77873597166107
C         3.32703608811718    2.41798752360136    9.61222735281166
H         3.85199114479686    2.36243400381541    8.67316471514194
C         3.84773656989922    3.11563233172246   10.68524956471949
H         4.79590619848520    3.62154042387595   10.59602422893419
C         3.13190891587905    3.14711761218550   11.87518658932592
H         3.50497427037300    3.67806952130180   12.73501667697691
C         1.92744563025246    2.47559415772490   11.95102839123276
H         1.34540440791122    2.47369327761788   12.86265363142777
C        -0.50058594130603    0.37460278919147   12.92518311070910
C        -1.60196281045968    1.79315438041977   10.73595378138106
C        -1.57325338272242   -1.05486413924968   10.75178239025324
C         0.66605899802232   -0.65672289406340    5.64955309865657
C         1.87119829453347   -0.38567525704654    4.74879020826468
H         1.72305679741228   -0.86612525800503    3.78502781908387
H         2.78142286886518   -0.78454165375249    5.19169334304505
H         1.99964621024812    0.68184770699233    4.58037832789889
C         0.48555516491074   -2.16534443727580    5.85420661890855
H         0.29455179721387   -2.65177489675961    4.90110671710881
H        -0.35213670970639   -2.35227638494463    6.52069429364877
H         1.38001394509099   -2.60133588137753    6.29423482701699
C        -0.60497262062254   -0.06507383748191    5.02727405092094
H        -0.80213560290610   -0.53451118075527    4.06700695183144
H        -0.49462658220628    1.00683495369137    4.87222682190402
H        -1.45475809873448   -0.23596728706754    5.68307638822581
N         1.51056897212738    1.03364065163699    8.76936879827993
N         0.34879495846330    0.40598481622362    9.02448973730238
N        -0.04093924928306   -0.21278771607155    7.98772834064488
N         1.41659101039360    1.79179943901163   10.92847750559360
O        -0.52059417621616    0.34108250940258   14.06817028693683
O        -2.36572175070123    2.63507776578690   10.58946570652119
O        -2.24404619023970   -1.95790752452891   10.56596932333277
Br        1.62243554343591   -1.33341536984141   11.25976261021825
Re       -0.27919188803395    0.39311924529893   10.98503459055998

