34
CSD_code = PUTKUM | q = 0 | S = 0 | Stoichiometry = C14H14Cl2HgN2O | MND = 4
Hg        3.17597819209765   -1.38738791269202   -1.09778650901542
Cl        3.75860441373484   -3.41594474454356   -0.18949820299354
Cl        2.28027517000407    0.68331527101315   -0.82379771150975
O         6.17340621763364   -1.01352623671006   -1.36149244696782
N         4.71972170132063   -1.64418921251304   -2.90017442085912
N         2.05613605424184   -2.02725739738528   -3.43071239544905
C         4.35186411072717   -2.18363197126497   -4.06310800617321
C         5.29536106246810   -2.65714033078145   -4.97025366046482
H         4.98534730720021   -3.08983040499898   -5.90771008161114
C         6.63723319238690   -2.57525701069284   -4.62785645198417
H         7.39442582043222   -2.94113285209121   -5.30500165663555
C         7.01037459636505   -2.02994191157808   -3.41425600210527
H         8.04928596750504   -1.96710063652993   -3.13686674172832
C         5.99900504506990   -1.56880029741927   -2.56123109371206
C         7.47218205837204   -0.93880714320201   -0.80580709115330
H         7.34368695103221   -0.49077981153377    0.17744231541197
H         8.12611514326992   -0.30550853139601   -1.41201143142913
H         7.91036935718430   -1.93459038480900   -0.69570727953816
C         2.92426257172665   -2.25443360489021   -4.33423408703618
H         2.64376272983442   -2.53561595774685   -5.35356722929822
C         0.70274220308762   -1.98709775934872   -3.73773065814125
C        -0.23773877343087   -2.51710547670044   -2.83775090737464
C        -1.58344935669364   -2.41735061416556   -3.15628791500164
H        -2.31326049554943   -2.82796592177830   -2.47383413975404
C        -2.01054375804536   -1.79958009639894   -4.31959729006621
H        -3.06556714666961   -1.72747423447028   -4.53607707586330
C        -1.08143711156440   -1.26289692504120   -5.19502828030517
H        -1.40494021779869   -0.76141414761261   -6.09456676060673
C         0.26516303688001   -1.36305813932321   -4.90991917997844
H         0.99244388321682   -0.90688384854491   -5.56611184481876
C         0.19621603928074   -3.18610217242066   -1.57487561089010
H        -0.64523031778290   -3.66626679322443   -1.08188795618393
H         0.60899114384599   -2.43720351856472   -0.88506812680679
H         0.96911320861942   -3.93083927063742   -1.76083406995941

