88
CSD_code = PUTMEX | q = 0 | S = 0 | Stoichiometry = C30H47CuIN8P | MND = 4
Cu        4.01837231396653    8.65059228366967    4.03763263671704
I         2.89288087769947    7.96933640422220    1.93731716302725
P         3.20562935664288   10.74284928986662    4.41082402612422
C         3.93404445030667   11.69237393114538    2.98725610458495
H         4.96848801413844   11.90332854359448    3.28329596396173
H         3.95484044385802   11.02396371069741    2.11762401725293
N         3.20434744246259   12.91111422309297    2.71731860341782
C         4.00830246020345   14.11588209992441    2.78361361161280
H         4.72395615030081   14.16927185111242    1.94465933189391
H         4.56697377309236   14.12467897440471    3.72190414995925
C         3.08864848350006   15.33110305662340    2.71753529893903
H         2.40579737326192   15.31478167113189    3.58832328650675
H         3.68510343775983   16.24583547291492    2.76325555377768
N         2.35454682665653   15.31828922054005    1.46798889951661
C         1.56938189056329   14.10156828092229    1.37541470042750
H         1.04201310823727   14.09829919850111    0.41926265608117
H         0.82070413793122   14.04382313161212    2.18770593523969
C         2.48873141818439   12.88821979720259    1.45303199518686
H         1.90147446955715   11.97123928745465    1.38657034799593
H         3.18880705648479   12.91863752336279    0.60147449303529
C         1.54024060937471   16.50117146879576    1.30598400427177
H         0.77079463309290   16.60073295344161    2.08882701499813
H         1.04585887373634   16.46150792496693    0.33665093605796
H         2.18097578959437   17.38158902256321    1.33485269666504
C         3.34758137405924   12.03584631128113    5.72771693815715
H         2.98767333097048   12.97565004649293    5.29801920533864
H         2.70337466413523   11.76681040103266    6.58180282627011
N         4.74704080845377   12.15370471700515    6.07571961357177
C         5.07453503354247   13.39134886911506    6.75792210039602
H         4.58503287827639   13.44837426383687    7.74563203288232
H         4.73491109685489   14.23510601745566    6.15161201384471
C         6.58579855501298   13.47387901704314    6.94673682916318
H         7.07021704967374   13.49036990291432    5.95277302004906
H         6.83964462822340   14.39735288175149    7.47246392811417
N         7.04811308918134   12.34925771864608    7.73855273403171
C         6.70016692782467   11.11202361059666    7.06862733038180
H         7.04020949182665   10.27157837177598    7.68031266673156
H         7.18687017315917   11.04245763386031    6.07747171828875
C         5.19110904658232   11.03882526593401    6.88535169070634
H         4.92163814154483   10.11049619335956    6.37320879281302
H         4.70555793106166   11.04310523371038    7.87804028022862
C         8.46506122112816   12.43058370574229    8.01255069746651
H         8.75356658060980   11.58934596301502    8.64141483356989
H         8.67133415123031   13.35503780972968    8.54973985382886
H         9.07744144480446   12.41124981023064    7.09639059287678
C         1.40034024546154   10.91372014996299    4.06814095199846
H         1.23090979691426   11.93767900385686    3.71848549471827
H         1.11466523278040   10.20454979017379    3.27160987084359
N         0.66584361422835   10.70590770797070    5.29739517813776
C        -0.73615108661828   11.05657626251093    5.15672592413092
H        -1.23522469743275   10.41337381653327    4.41272615858234
H        -0.80697635959878   12.09593129249721    4.82584443108669
C        -1.43833610002469   10.89941574548656    6.50067601931178
H        -0.98692027723939   11.60012118556231    7.22766682349886
H        -2.49639378950067   11.14796730955028    6.38999029049555
N        -1.32988435416514    9.52659227046618    6.95399598436437
C         0.06879758865320    9.17511414920333    7.09482734395125
H         0.13662598458453    8.13498492772261    7.42418842792977
H         0.57107607436682    9.81249871387998    7.84761889066175
C         0.77501124234468    9.33534994055350    5.75538382667113
H         0.33868823328512    8.63350131235942    5.02462422630814
H         1.84151744542382    9.10722224983524    5.87141708091645
C        -2.07174999506079    9.29823598358015    8.17274820470266
H        -3.12003870240361    9.53779248223150    8.00086112269221
H        -1.70591419715101    9.90633367931419    9.01640341159560
H        -1.99525949569550    8.24614124026536    8.44392883104350
N         4.26627957058229    7.45686281969526    5.59520291315691
N         6.04785625768891    8.83487381846789    4.14279749729806
C         3.38647309536968    6.71739678957023    6.24438199519843
H         2.36623219083976    6.76551793866992    5.89001375511515
C         3.72885498737435    5.91042272187142    7.32512038880791
H         2.96736922808241    5.32648265638045    7.81713084554593
C         5.04015585863989    5.87608351292564    7.75444229655790
H         5.33608873831355    5.27186950641334    8.59939591269613
C         6.00082843630925    6.63173956854779    7.06783066500076
C         7.38201344935663    6.65193088257156    7.41688367678869
H         7.69792012786024    6.06544739907152    8.26754775168926
C         8.27729604312659    7.37578665394789    6.70268188138181
H         9.32388032266400    7.38247749858086    6.97120495237459
C         7.87164948699117    8.13490431282335    5.56840152001686
C         8.75794882922757    8.86796790156433    4.76733177915627
H         9.81131357037843    8.88093441836034    5.00764173159140
C         8.26766811864953    9.55308295516499    3.67524415631903
H         8.92439477311376   10.11542920640706    3.03023048025333
C         6.90155909991074    9.50659497894001    3.40164256839926
H         6.48842210119905   10.02242354453438    2.54558622927227
C         5.56141475955438    7.40280703029472    5.96967963628309
C         6.50576354296785    8.14916160522210    5.20716574742787

