106
CSD_code = PUTTEE | q = 0 | S = 0 | Stoichiometry = C37H60N6O2Zr | MND = 7
Zr       -2.93079536007395   -8.33589449356932   14.16571351137427
O        -1.77725565008636   -9.04004960979757   15.78235281384661
O        -3.53102609756091   -7.60129849776817   12.27881551401751
N        -0.74378011832101   -8.20323777336102   13.06986552326207
N        -4.94658919847187   -8.85378922615469   13.37611244091997
N        -5.68764843168485   -7.70880676934676   11.42406200189916
N        -3.90815286247860   -9.41940755748698   15.81040886190835
N        -2.43932819630956  -10.52165587524675   17.39182240843968
N        -2.86464775754304   -6.38488446332114   14.87704682161093
C        -0.88886827693956   -9.65303776140896   12.81921303391469
C        -2.05944922615794  -10.16973873323774   13.18419903419222
C        -6.24641198219023   -9.17516656278625   13.90611229701500
H        -6.48009886599899  -10.23535185895865   13.72442604642883
H        -7.03260827779145   -8.55981215239771   13.44333111102342
C        -2.48129646242101  -11.54415505021912   13.11353616971221
C        -6.27889060399983   -8.91952718164880   15.43301124344115
C        -0.56263247364212   -7.50125249834278   11.79953596499649
H         0.36691401699220   -7.81111573189178   11.29681525399108
H        -0.52056567877481   -6.42497550766760   11.97482228741572
H        -1.41074302389093   -7.72055678132275   11.15019408013532
C         0.21131355728712  -10.37054763011707   12.11850643175162
C        -4.72689160601842   -8.06268381235972   12.36295384462473
C        -2.74474214482568   -9.69198819488335   16.33913738539119
C        -1.86027039066280  -12.54685520533874   13.87356330744358
H        -0.98518219417395  -12.28865004304445   14.45484844921270
C        -6.48116108023732   -8.76235961327511   10.80543939799849
H        -6.36541983412777   -9.63838418499443   11.44930392649411
C         0.08659719671608  -10.68233424703893   10.76613848854137
H        -0.79560759668356  -10.35667686202395   10.23277145699645
C        -7.96914941037606   -8.40659453866192   10.73339458443600
H        -8.31940679059583   -8.02201332330920   11.68787907303438
H        -8.54326487855935   -9.29598020741655   10.48677046516501
H        -8.16182498787134   -7.65816085358913    9.96884200950596
C        -7.67535536109877   -9.27469032608493   15.95460380875807
H        -7.74535053417836   -9.07940469257447   17.02250743893530
H        -7.89648637125799  -10.32632041720381   15.78383756690443
H        -8.43399277703028   -8.68050738045550   15.44992110176906
C        -5.24696839030377   -9.82411202332358   16.15150003193779
H        -5.42886154298600   -9.74977059389694   17.23688266782161
H        -5.45231071883924  -10.85990869917742   15.83062879662003
C         2.31990778679419  -11.54191030243301   12.14907779000511
H         3.18847153100511  -11.88451668043903   12.69413653145580
C         0.38110988728140   -7.89522792816755   13.95127589718453
H         1.34631976294555   -8.15830818562525   13.49118659063584
H         0.25910026959831   -8.43993061303466   14.88727177130735
H         0.38328994088826   -6.82435169231633   14.16951869088360
C         1.33721362819021  -10.82106185845750   12.80413617395661
H         1.43520086029274  -10.62020819702449   13.86171388518886
C        -5.61107345543185   -6.39556390681429   10.79128460441218
H        -6.48959194169990   -6.31988042426041   10.14243499124692
C        -4.08907474433979  -13.19254842238632   12.36476161604029
H        -4.95678719963822  -13.44915346510052   11.77091862419326
C        -4.36423655802894   -6.15254343687960    9.93482024965335
H        -3.47795804060715   -6.16312996684719   10.56116863013512
H        -4.44708472741276   -5.18467106979906    9.44425051926308
H        -4.25850176011726   -6.91923112024680    9.17265427583123
C        -2.58822843835961   -6.13300492603332   16.27430478009009
H        -1.50030836594843   -6.03685080565982   16.47737871502573
H        -2.98421135062438   -6.94389645286720   16.89335408002705
H        -3.05768813597085   -5.18466967571108   16.60682558283409
C        -1.11698744640395  -10.43584874018608   18.01504962860174
H        -1.15494315181410  -11.08833288020634   18.89236267011518
C         2.19222051412263  -11.82993415503300   10.80103665059277
H         2.96114593894350  -12.39191888944463   10.29075327873291
C        -5.98041871044266   -7.44201575465628   15.70603198336972
H        -6.75989919151937   -6.81913246685604   15.26793612410605
H        -5.00852357884695   -7.16601297998564   15.26792213505330
H        -5.95479896750142   -7.25661281329701   16.77921269743602
C         1.06857277303914  -11.40349279459174   10.11265539027357
H         0.95870605970973  -11.63538807867796    9.06260993168928
C        -3.31355014956855  -11.59852076172819   17.83323559927027
H        -4.17286393944450  -11.59415046986726   17.16811677805964
C        -3.61004068734947  -11.90005135582379   12.35791146971063
H        -4.09901279844295  -11.13239510057521   11.76831472410446
C        -0.83874018926814   -9.01637571831494   18.51271618128707
H        -0.76307536361719   -8.33464448737885   17.67086291711252
H         0.09223781239951   -8.99844670622679   19.07482168865079
H        -1.64546534123420   -8.68308884945016   19.16215962339536
C        -3.47004978177562  -14.16901453545356   13.13295848654781
H        -3.85168611136918  -15.17980835583789   13.14193902450004
C        -2.35406535504087  -13.83562840335108   13.88491791368048
H        -1.85913596700336  -14.59702239849718   14.47437879490695
C         0.00314395069162  -10.93344582800778   17.09779596974831
H        -0.12065489129042  -11.99059428053413   16.87833803349578
H         0.96687134151040  -10.78855504741656   17.58121302976265
H        -0.02077831825225  -10.37712830440559   16.16557840574995
C        -2.36574296619667   -5.28129978720783   14.08998595145832
H        -2.88115997177140   -4.33523643763389   14.35629827163076
H        -2.53332884443542   -5.47599681212800   13.02777242668106
H        -1.28108611254884   -5.09871552745810   14.25339287614931
C        -5.95560233726374   -9.14500582060809    9.41692974422723
H        -6.11156546739998   -8.33987380851507    8.70314796014596
H        -6.47973533680712  -10.02774612941836    9.05783552123221
H        -4.89297366358819   -9.37048107116930    9.47114236351583
C        -2.66580002332238  -12.97853764660587   17.68339108816506
H        -2.32987358928957  -13.11616471410381   16.65904398357839
H        -3.40433746664560  -13.74469024483878   17.90809328523250
H        -1.82473097309638  -13.11112213790564   18.35873408225934
C        -5.72564091340988   -5.33409689354468   11.88844914186510
H        -6.67151719078600   -5.44075228656631   12.41558753245494
H        -5.67581430842739   -4.33700764547851   11.45778056225886
H        -4.91452702536053   -5.45561278804388   12.60417986355242
C        -3.80613744028375  -11.37035065508946   19.26693511163346
H        -2.99572506693717  -11.46393004571262   19.98549048785523
H        -4.56814664964495  -12.10455567248729   19.51600785194903
H        -4.23542166891886  -10.37564765384880   19.36237211168244

