59
CSD_code = PUTVOR | q = 0 | S = 0 | Stoichiometry = C26H22N8NiO2 | MND = 6
C         7.33022682088255   11.76219580605582    0.81451237658796
H         7.41517931336489   12.83851087911946    0.89622128747946
C         8.23494150770043   11.03926249367116    0.05249795359086
H         9.03614932790936   11.54058187262992   -0.46627546303372
C         8.07840004394963    9.66196206789374   -0.02506015268418
H         8.76297994441842    9.06412900641652   -0.60893643251491
C         7.03792532216402    9.06574109694091    0.65829540575291
H         6.90001826319989    7.99720078410670    0.62668467324557
C         6.16911402831672    9.86505650367783    1.40988057870663
C         5.06895888619264    9.33990192505249    2.18786394398112
C         4.67377142496434    7.89665758792253    2.13092514247129
H         5.45533767391758    7.27134606657274    2.56126682815306
H         4.50600628809847    7.58340723930830    1.10158123533301
H         3.76191384889027    7.76166628029803    2.70606513063821
C         3.00728917251523   10.81279837738207    4.50692157947364
C         1.92288649418674   10.45893052942081    5.44635473615622
C         1.46640787421246   11.40032620402444    6.36648459236471
H         1.91375590311298   12.38354720189932    6.37920154547161
C         0.45579319923035   11.04390456044978    7.24095786462969
H         0.07720336225922   11.74327604811362    7.97074424017040
C        -0.06001652491955    9.75843647170823    7.15876753102325
H        -0.85027607345022    9.42876626175045    7.82114033866535
C         1.32894760995978    9.19709350769561    5.45535111672510
H         1.65369038093799    8.43774095966656    4.75815021943398
C         2.76957199079703   12.50299424158707    0.91957887355407
H         2.67569521342833   11.43503295838946    0.76809236674607
C         1.86772984713318   13.37993340334466    0.33682871567015
H         1.05977080465506   13.00824679735061   -0.27262977256023
C         2.03602774583492   14.74037028416449    0.55654727758872
H         1.35462080834993   15.45514654006320    0.11865880245215
C         3.08435836217843   15.16748117257615    1.34627632027183
H         3.23204646223655   16.21673233311488    1.54388051912793
C         3.94895016772118   14.21839369437668    1.90332459926621
C         5.05723729583861   14.55550203899391    2.76921943388247
C         5.46236579054613   15.97434486522604    3.02439918546637
H         4.68343610300324   16.49881297530298    3.57677840084271
H         5.63632774212359   16.49977850106771    2.08654725069799
H         6.37313931379710   15.97592386777429    3.61683187331537
C         7.13209709198678   12.60098627686393    4.68593542633270
C         8.23242963764639   12.73426312051632    5.66323805647890
C         8.70837370634230   11.60793729096575    6.33113118432878
H         8.26321944213198   10.64577771993188    6.12351503340336
C         9.73560235672163   11.75797397020594    7.24511932140763
H        10.12991074201838   10.91067673235770    7.78516528847632
C        10.24770022234315   13.03056715656648    7.45365243165221
H        11.05087353854267   13.20231109734183    8.15887334164587
C         8.82396431409212   13.96332656795952    5.95405987533469
H         8.48370109050236   14.86167697436595    5.45875814772347
N         6.32647512230607   11.20445212144843    1.46854995009930
N         4.45988829846354   10.19589910009656    2.95685368352106
N         3.45142640543439    9.82755668648746    3.72411528440663
N         0.36336655013163    8.85669765156673    6.28683672814868
N         3.78068836382781   12.89918289706450    1.67248350221689
N         5.66572391764473   13.54927838596315    3.32788755419857
N         6.68315878973588   13.73630710486257    4.14753033950449
N         9.80525660042339   14.10748183681675    6.82343858679384
Ni        5.06096627166466   11.87774549248410    3.09834270568896
O         6.67118975022137   11.46867697126579    4.40350448494992
O         3.46190604815960   11.98179143976513    4.47697895554176

