65
CSD_code = PUTVEF | q = 1 | S = 0 | Stoichiometry = C16H38CoN2P2S6(1+) | MND = 6
Co        8.66608892335006   13.38965624396516    8.46563702822469
S         5.87733644637892   18.80418924002346    8.76137781327848
S         9.13519632073674   11.70764627684834    6.92696998808335
S         6.73391787568219   13.18456111649736    7.22411766925246
P         7.67173690604419   14.84061024555316    9.85583308580403
N         6.93812622675760   11.13018789830091    5.52473445114585
C         6.19253909779244   14.18838967204258   10.70177556308046
C         8.61591919441971   15.50642913940828   11.26997226164156
C         6.94519601161199   16.28314599452186    8.96270373480451
C         6.61863794388479   17.50222411835722    9.80905986794222
C         4.15069664859618   18.25006062303533    8.73561858895114
C         7.51901709166962   11.89536597006598    6.43247372121479
C         7.62915253380447   10.03698746700622    4.88452595580222
C         5.55726993691754   11.29727907395186    5.14176045553725
H         6.48552609190249   13.45928170198200   11.45511146583771
H         5.54511250943827   13.70186724971844    9.97287298650772
H         5.65988753737318   15.01113619344476   11.17800965932294
H         9.49161124467944   16.06110765953937   10.94083464168697
H         7.96870554986641   16.14587891114195   11.86847245145713
H         8.94898368193748   14.66374388433333   11.87642540152771
H         6.04152047059509   15.88841071157922    8.48547982815247
H         7.62658346608400   16.58631615951175    8.16566274428020
H         7.52149604888735   17.95150420265425   10.22001622895536
H         5.91902545122666   17.28559939709553   10.61493404656754
H         4.07477512424636   17.26993587509592    8.27366877891576
H         3.75887018474783   18.23472221387220    9.74862025639267
H         3.60666467751950   18.97732813430357    8.14256030467425
H         8.68544415611345   10.05758308272337    5.14444390614166
H         7.20260404404798    9.08456715440401    5.20580833449263
H         7.52190115001183   10.12259084245193    3.80248245777932
H         5.01279418053267   10.36750964303324    5.31389503065042
H         5.10149003855421   12.09318909833833    5.72681502362887
H         5.49421336347095   11.54995521700923    4.08164756367305
S         8.19646351342710   11.70812703288963   10.00464690023129
C         9.81281774072577   11.89545504775981   10.49873877798366
S        10.59786856819129   13.18494570327507    9.70752874279688
P         9.65994937380515   14.84060312278548    7.07517945940688
C        11.13904242527269   14.18822269892090    6.22917298366164
H        10.84592580629187   13.45919821825506    5.47580884116506
H        11.78646278386211   13.70157297436454    6.95800043865807
H        11.67175328940258   15.01094621129979    5.75296425318760
C         8.71567821216084   15.50650739853570    5.66116210203240
H         7.84007508674271   16.06124748471717    5.99042506831491
H         9.36290190626088   16.14589464776957    5.06260886312945
H         8.38248190970480   14.66383472220845    5.05476846298131
C        10.38673106061585   16.28295649460122    7.96840341910420
C        10.71307543011109   17.50214550242172    7.12213628565134
S        11.45439044590547   18.80406775115684    8.16986066329048
C        13.18107536797419   18.25007700519501    8.19542319812103
H        13.25711400444980   17.26991462857736    8.65727222357302
H        13.57281559867466   18.23486726552949    7.18238687490554
H        13.72509521057026   18.97733413626376    8.78850639563175
H         9.81012433403414   17.95138799179402    6.71133981845110
H        11.41259904590712   17.28565131889911    6.31614996204596
H        11.29051531313745   15.88816017234444    8.44537443316884
H         9.70551712257734   16.58599855522208    8.76564377062393
N        10.39363945902765   11.13037245162373   11.40659824065419
C         9.70266104888049   10.03701217742845   12.04658492751735
H         8.64620198874858   10.05812385110733   11.78737744328175
H        10.12867985747366    9.08465502047937   11.72440999503714
H         9.81067594544510   10.12189800577789   13.12860445478933
C        11.77452610666385   11.29735837937164   11.78943309468399
H        12.31941697627069   10.36821865584846   11.61551694388742
H        12.22983205121877   12.09446368888030   11.20573228749561
H        11.83785288759721   11.54812127288363   12.84991937914563

