69
CSD_code = PUTZOU | q = 0 | S = 0 | Stoichiometry = C28H34N2O4W | MND = 6
W        -0.55998389213661    7.95966796685132   17.46928544150735
N        -0.78376274340583    9.71184234264103   19.17562514163765
N        -0.35893276823295   10.37714157723857   16.57067494310792
O        -2.28668220550723    8.73926458142182   17.26196766779679
O         1.29185406705729    8.45114016321789   17.64922264279233
O        -0.38154301583834    7.20680724624571   15.96067231672645
O        -0.79771096691127    6.90385359431439   18.78357974816506
C        -2.84339625992138    8.79948188716660   16.05123283014510
C        -4.00698049538619    8.04839244464796   15.75162787506906
C        -4.65229877921832    8.29548506300602   14.55057279080673
H        -5.54784351062936    7.75421448252184   14.29519810241695
C        -4.17999805304083    9.23366385286528   13.64620188755431
H        -4.71710119687365    9.41622775493808   12.72804329667474
C        -2.99992575077103    9.89903874577706   13.90342553629285
H        -2.59270907454046   10.58467973936427   13.17312905426240
C        -2.31616853245556    9.68725913029843   15.09372873408861
C        -4.44407458650185    6.93716485881517   16.70247484624448
C        -3.34416847183247    5.86035300085526   16.69910243622845
H        -3.63323154516496    5.03548030991308   17.34767620413434
H        -2.37392102159569    6.25971579235281   17.05928509328411
H        -3.19841541300493    5.47805116450256   15.69031028500082
C        -5.75665187404514    6.27992624333472   16.25640765801742
H        -6.02649041791987    5.50060007576689   16.96577900038880
H        -5.65318652747567    5.81594529573454   15.27914123224791
H        -6.56725918438890    7.00476831200291   16.22583562105980
C        -4.64436839979939    7.46276500396836   18.13293219466422
H        -5.12875828932310    6.69975806342018   18.73910349342050
H        -5.27316521248782    8.35176076158630   18.12891734682631
H        -3.68453632475511    7.70432892219400   18.59327715985269
C         1.90687154037637    9.40941279059153   18.31853566763740
C         2.68312067102616    9.20163413154203   19.47877741483994
C         3.20241075341894   10.33114883584311   20.10334933496658
H         3.78461271009148   10.21272828764893   21.00483784823072
C         3.01847536632887   11.61352176616327   19.61776321601835
H         3.44216835983086   12.45565972786834   20.14323638130386
C         2.31926811474521   11.80740253187800   18.43971441104040
H         2.20680009751149   12.79954828292675   18.02426023572785
C         1.77155419036303   10.71798673132218   17.79258157547410
C         3.01884403258343    7.82535327265435   20.04858853734248
C         2.52308874051224    7.72428799368013   21.49870142580622
H         2.89706605332205    8.54013765031305   22.11211378978055
H         2.86017353402686    6.78722447509708   21.93657999051757
H         1.43706182290162    7.74144026409962   21.52478453187755
C         2.41790096589937    6.65252163857240   19.26300461063369
H         2.78181901548524    6.63949448869727   18.23577422407052
H         1.31965215297075    6.68263110108371   19.23859482102539
H         2.71783155731315    5.71981765579921   19.73962433502599
C         4.54950757186535    7.66662608608011   20.02207712292676
H         4.91989377126850    7.78096844474481   19.00594119412253
H         4.82719500354483    6.67770442488831   20.37998036624788
H         5.04078323307886    8.40585161725365   20.64912568457776
C        -0.84185963968512   11.01090969364746   18.87361690485202
C        -0.72310774811420   11.99696969791865   19.84545641038768
H        -0.77282928344865   13.03894460837808   19.56976952907178
C        -0.52793380576051   11.61828720394682   21.16251569970829
H        -0.41554134897871   12.36514074212641   21.93395793376351
C        -0.48852625033181   10.26714248916286   21.47224014264658
H        -0.35171157887642    9.93261858151328   22.48774569750685
C        -0.62706732983572    9.34958458173284   20.44470957766385
H        -0.63044145528147    8.27584808739727   20.60512966497107
C        -0.94153276807654   10.31505415374946   15.22254314735318
H        -0.26584102022186    9.69555356098575   14.61724093920252
H        -0.96310578632361   11.32648466118325   14.77652682232722
C         1.04780751122760   10.81721948616467   16.47545642051080
H         1.55180968130120   10.15384156536755   15.76095678936443
H         1.09757700052073   11.85049471141757   16.09145885047791
C        -1.09050166358840   11.32171212062417   17.42120528095643
H        -2.16545834049414   11.20443438324485   17.22951111297735
H        -0.81072498638449   12.36427909572288   17.19668177665434

