81
CSD_code = PUVDOB | q = 0 | S = 0 | Stoichiometry = C28H49FeIN2 | MND = 7
Fe       11.83643445850644    3.21899770980312    9.58907833399408
I        12.65157409618662    0.90568952139340    8.83367996127884
N        10.59292156868005    1.90367602013651   12.15810819799966
N        12.50067415232079    2.89989218567130   12.38752344898023
C        10.78499567959544    3.78394318435179    7.62248304043135
C        11.94956055081302    4.59347319145511    7.84180257434663
C        11.72926700122848    5.28543654111592    9.06849529424895
H        12.34848529764055    6.08172661839766    9.43966499691365
C        10.47533039940809    4.94979147856511    9.61902461304845
C         9.91492883708127    4.01276165165682    8.73355557336833
H         8.90879467757268    3.64789947701608    8.79684127388458
C        10.21971559735011    3.03141927078383    6.42106244560883
C         9.37433973207530    4.06023793516559    5.64578287790160
H         8.58503830335179    4.45852630066927    6.28016924259028
H         8.91478043547829    3.58748963151199    4.78005252766538
H         9.98182841410935    4.89254001885530    5.30239122564386
C        11.22244757187376    2.37411880357993    5.47055718861184
H        11.89577662451517    3.08171567778837    5.00453559409177
H        10.67519432979916    1.87546106166360    4.67183272413274
H        11.79929678832407    1.61673918859686    5.99254816776955
C         9.28707081396198    1.89002466001763    6.86033689861973
H         9.83275905100181    1.15897751546645    7.44743285675932
H         8.90138210448581    1.38642853320230    5.97635360568255
H         8.43290199752788    2.23748599743826    7.43181454347514
C        13.15426718647950    4.94653522106335    6.97556125409992
C        14.05083911794386    3.73196542381632    6.71090514985634
H        14.81719982238837    3.98365503877556    5.98020177741614
H        13.49752057457704    2.87941996711926    6.34557377721424
H        14.54883204970204    3.43518012212155    7.63187689534692
C        12.69550458891384    5.60894166293139    5.66751386138111
H        12.03902465912448    6.44933015829396    5.88928722053631
H        12.16506798497402    4.92486781739232    5.01688519131498
H        13.55946571101816    5.98509338217551    5.12205580326798
C        14.05267531291609    5.98751154346962    7.66752412897001
H        13.53553154911915    6.93468197345345    7.80706304386301
H        14.91946925601409    6.17564572692932    7.03634490922825
H        14.41676062550289    5.63057881574379    8.62715006996650
C         9.80591708541240    5.68054742719246   10.75528164088639
C         8.68605542807143    4.84521501356815   11.37447656113903
H         7.90885811182223    4.63241721241691   10.64527828697822
H         8.23040680624963    5.38289804470328   12.20401636327332
H         9.09205705076232    3.90951860636947   11.74557340564594
C         9.21825737888988    6.98078313150145   10.18563631808019
H         8.49106798606355    6.75815776859757    9.40784795526751
H        10.00237063360419    7.59716772224547    9.75130363651848
H         8.72409289027324    7.55067109896970   10.97016111938040
C        10.81951841581406    6.01667043492813   11.85331014151257
H        10.32170160992802    6.50622546864662   12.68805427384713
H        11.59254883517749    6.68722393552932   11.48669998527972
H        11.28585202941376    5.10440744661421   12.21550935204763
C        11.57632419997188    2.52585767746371   11.45210192605332
C        10.88937364176619    1.92911810277248   13.49952684121697
H        10.25343272685883    1.51478186103737   14.25052589140063
C        12.07520735691680    2.54549530683697   13.64308120203869
H        12.62805586387167    2.75027126372684   14.53395814528378
C         9.55118100562853    0.98067831399027   11.68767086390659
C         9.07113082357192    1.34027760631199   10.29229709184573
H         8.37420269200402    2.16968035129882   10.33501801304746
H         8.57027024304135    0.48658755006235    9.84634469580971
H         9.91381351179059    1.62168980351529    9.67083796668808
C        10.17140194762407   -0.42192901730060   11.68091420287776
H        10.96707646923570   -0.47804134267413   10.94377613929861
H         9.41566945629022   -1.16084888667388   11.43048896737000
H        10.58515646538619   -0.66663107829191   12.65744744410193
C         8.34657497373627    1.01170921258105   12.63812425009548
H         8.53401396883907    0.46878027432952   13.56102530267852
H         7.50321154622718    0.53524646710552   12.14523786771117
H         8.06603279399973    2.03532072158348   12.87802306578113
C        13.89082074710906    3.30154247482921   12.17191846939429
C        14.05463298890457    3.99902567577029   10.82970016803850
H        13.72468634629734    3.35981407483856    9.99724697176551
H        15.10741432680674    4.21177308477020   10.66016081282583
H        13.50747610927736    4.93609183415180   10.83567057359629
C        14.74823660180237    2.03036034097264   12.20918843411386
H        14.61882533347925    1.50592083845336   13.15350734039298
H        15.79885004794605    2.28211320320811   12.09396045387276
H        14.46064884933871    1.35940628688298   11.40270492821340
C        14.32871418799235    4.27760377351392   13.27224363335493
H        13.58432703112355    5.05939863761682   13.40884146296383
H        15.26721686794855    4.74466451408840   12.98561823914432
H        14.49085969216700    3.77477873435046   14.22161930575909

