48
CSD_code = PUVHOD | q = 0 | S = 0 | Stoichiometry = C23H16ClN4O3Re | MND = 6
Re       -0.53151166071640    3.16709464843641    4.91762652220095
Cl       -2.77441039690801    3.88431207636529    4.74267983918774
O         0.23785103370230    5.08888184920586    2.62444687731956
O         2.35124831697850    2.20954331928058    5.48662223180080
O        -1.25233329016469    0.89913093100002    2.94752456358849
N        -0.34908932917180    4.80238274950102    6.40544094998727
N        -0.24092335774480    9.96545763500671   11.21229532441865
N        -1.31899724865613    1.94263814989871    6.62163211048421
N        -4.30826756219418   -2.04051557423720   11.61759108443067
C        -0.00281553010440    4.35403220912087    3.46838339900013
C         1.28154496495200    2.57121210915573    5.25836753287892
C        -0.93142646133606    1.72944912071428    3.66647898927865
C        -0.92339742132660    5.98200620011943    6.16677814799065
C        -0.92837647223769    7.01885649613805    7.07960234617244
C        -0.31489273804719    6.84975956145029    8.31887362240668
C         0.28274960150077    5.61308664125317    8.56271223660153
C         0.24637003941963    4.63673156399260    7.58819950051462
C        -0.29147125411001    7.92393022146126    9.31843850000575
C        -0.10584105673399    9.25292032269458    8.94075543542740
C        -0.08620804999444   10.22642184001967    9.92618167014239
C        -0.42084504486185    8.70731332112208   11.57300041628279
C        -0.45145646765235    7.65192818842145   10.67627070322000
C        -2.24541829008824    2.43923894347570    7.43986688312046
C        -2.84833230151713    1.70152612684580    8.44073367084590
C        -2.49850573234880    0.36521797129131    8.61497521709900
C        -1.52811711065184   -0.14996725510553    7.75492115533501
C        -0.96999203097493    0.66441206531457    6.79145626097238
C        -3.12321853728813   -0.46466739812074    9.65140434370808
C        -3.39392553075288    0.04751359538014   10.91927517426653
C        -3.98171669251370   -0.78316553192957   11.85898960206557
C        -4.05737444593846   -2.52739051597597   10.41507091827926
C        -3.46688297978744   -1.79196788851815    9.40030590860650
H        -1.41678136578854    6.09784266783592    5.21094182622652
H        -1.42405909006494    7.94395200348008    6.83102687435640
H         0.79272290917047    5.42135128992064    9.49391797499212
H         0.72526168010052    3.68102964849935    7.76429135809165
H         0.04341320911718    9.51682482705570    7.90525136580814
H         0.06020085213745   11.26840435733587    9.67486570574308
H        -0.54546513939087    8.53858627740628   12.63451014941005
H        -0.61829230653985    6.64331185467004   11.02233287284027
H        -2.54877392171096    3.46481462646256    7.27231257923740
H        -3.60610028303198    2.15924718740268    9.05753607324123
H        -1.20074146437882   -1.17381073561423    7.84446573561650
H        -0.21099992632072    0.27711792579462    6.12334237258949
H        -3.13144445721303    1.06350387413969   11.17207896913269
H        -4.20345611950634   -0.42555117230769   12.85584493070195
H        -4.34358421428459   -3.55901691868191   10.25923186264190
H        -3.29961732499691   -2.23123140620007    8.42904821174102

