74
CSD_code = PUVJOF | q = 0 | S = 0 | Stoichiometry = C36H30Cl3O2P2Re | MND = 6
Re        3.50189344686839    6.38361541035305    7.56946716057076
Cl        5.40272186134029    5.45190309676919    8.56560446426637
Cl        2.52080351708564    6.19820073254667    9.59211501551348
Cl        1.42471701684330    7.11214504854896    6.81419514493252
P         3.70988778782254    5.24879473916412    5.41241766237391
P         1.48802452531510    3.62252678804116    8.45850940007565
O         4.36261584736620    7.74238996021231    7.17284796363502
O         2.51440704401170    4.19795051913851    7.51785789403215
C         2.13557158480585    5.17413052503653    4.50484346497206
C         1.29697133607936    4.07313112022790    4.65782455600463
C         0.07938464383486    4.02868728176878    4.00285168120691
C        -0.31534872019245    5.08288475291612    3.19601256002208
C         0.51626103404041    6.17980172730530    3.04080428712986
C         1.73592303341377    6.22930749830404    3.69007028503020
C         4.34107712917757    3.54532155082914    5.32185978378910
C         5.14779739625537    3.01614530798772    6.32221347520274
C         5.61462535302222    1.71569635948226    6.21773850349948
C         5.28972860911247    0.94111584291861    5.11714817009654
C         4.50521625325347    1.47492033007237    4.10659273716094
C         4.03351491528055    2.77094761525882    4.20280843360210
C         4.80050118313339    6.19376663711160    4.29764186392571
C         5.68862629294346    5.55908285488947    3.43675978255578
C         6.47480649885029    6.30947290446370    2.57939623628824
C         6.37930014716703    7.69033849428655    2.57157431110365
C         5.50041700662102    8.32710459720690    3.43362492135754
C         4.71738997261702    7.58437680861534    4.29731075965728
C        -0.00351513979248    4.63061991522906    8.69527286957299
C        -0.69910735940340    4.97769228923149    7.54311946860024
C        -1.83104113702123    5.76587508308940    7.63471491774538
C        -2.27160491275360    6.19878663560432    8.87459294625602
C        -1.58161175411595    5.84417369722060   10.02285010170306
C        -0.44475912509362    5.06054849626731    9.93833023543749
C         0.90097651923045    2.09272014011017    7.65949219813473
C        -0.42780081048656    1.69707827165190    7.63544517518596
C        -0.78063671103544    0.51601522529870    7.00474995191942
C         0.18810654308299   -0.26927859956374    6.40162631302496
C         1.51822022843678    0.11898434869008    6.43578426230681
C         1.87406215512014    1.29450711173671    7.06980740285031
C         2.14711243017064    3.01198851090723   10.02884996198389
C         1.28550196827475    2.35252715347378   10.89885969454510
C         1.77476320176349    1.83232122558656   12.08160223323327
C         3.12159870029440    1.95802781003249   12.38849375442206
C         3.98053659099769    2.59527732503159   11.50909945417568
C         3.49819303277637    3.12111690171843   10.32272937873625
H         1.59560258543278    3.25088275618319    5.29195225851093
H        -0.56360054371450    3.16928598935936    4.13246292572784
H        -1.26995899690704    5.05058386253606    2.69208295614798
H         0.21056354931350    7.00536661929967    2.41582608128679
H         2.37452501281677    7.09130127475678    3.57140654914062
H         5.40471204280258    3.62032772474237    7.18111570007020
H         6.23376280150582    1.30953129587719    7.00354867871600
H         5.65064937328943   -0.07415076896825    5.04098498439539
H         4.25980586841408    0.88083281866733    3.23827672965504
H         3.42837630144538    3.18210968534445    3.40661015321648
H         5.77661855554690    4.48276925891715    3.43977758529650
H         7.16841287144785    5.81063358023992    1.91873155399496
H         6.99759367058739    8.27091724059842    1.90341291813495
H         5.43259196007697    9.40440340057444    3.44052578826535
H         4.05728159343095    8.07959480922246    4.99942377318850
H        -0.33628865137706    4.64367069772200    6.58075191835060
H        -2.35931418246258    6.05076989295582    6.73736411179933
H        -3.15069090940472    6.82202439074442    8.94682461609754
H        -1.92219911499609    6.18965293638299   10.98776195074105
H         0.11213732167576    4.80464798796708   10.82818378901616
H        -1.18458877028948    2.31426909926611    8.09882785387679
H        -1.81613356230239    0.20948903334714    6.98194705543753
H        -0.09427753336258   -1.18639844906974    5.90619782714422
H         2.27710661886072   -0.49214743532822    5.96999182660434
H         2.90716401237931    1.61211027559544    7.10543163880723
H         0.23927377932756    2.25076583308799   10.64301723634624
H         1.10755598257413    1.32819687445267   12.76546407971396
H         3.49948243933332    1.55453083832912   13.31642824175477
H         5.02935104929507    2.69150070534990   11.74490004709806
H         4.16395573889290    3.63358772689486    9.64185833366022

