77
CSD_code = PUVLEX | q = 0 | S = 0 | Stoichiometry = C40H30N2P2PdS2 | MND = 4
Pd        3.24760123551809    2.81334440607283    2.06016692840800
S         2.95760423602852    1.36792099458833    0.28604893887749
S         3.94304728202276    0.75647468139383    2.89851481801069
N         4.48617854985653   -2.94646280944605    2.64177391453415
N         2.98060216236390   -1.98480790444104   -1.34585138203850
P         2.30102851521091    4.56590216988607    0.94579987520266
P         3.80381208646489    3.90407680215245    3.99028434381632
C         3.53024134768000    0.12702019691675    1.34352230548594
C         3.63785955581355   -1.19501440384201    0.99062689294155
C         4.10511009147830   -2.15735156508999    1.89821849106397
C         3.27747032912688   -1.63337042692016   -0.29254579947828
C         3.26040486408130    6.04615349337176    0.52964089798113
C         2.69300169954466    7.15851593874626   -0.08286382500216
H         1.63853730893102    7.16219214899173   -0.32217588112947
C         3.49070650988385    8.24292018005485   -0.39907187603155
H         3.05432930766041    9.11241789722165   -0.86826222276129
C         4.85029708149254    8.21348461987864   -0.12661172897815
H         5.46649234662108    9.06359772298472   -0.37880702404161
C         5.42358413635879    7.09135226875830    0.44950122427125
H         6.48610266186403    7.06079986946914    0.64163404495506
C         4.62873868988542    6.00695996535771    0.77455305608177
H         5.05723837824685    5.10801824390194    1.21348775674578
C         1.47022774583151    4.21057445028484   -0.62921915497102
C         2.30136184484025    3.85325775268182   -1.68964469035365
H         3.37442253644027    3.83399659137012   -1.53701614887346
C         1.75484603311743    3.51041713060102   -2.91015153845431
H         2.39782071385890    3.22283408219320   -3.72818409770544
C         0.37841195655313    3.52036607676971   -3.07640467942261
H        -0.05062761033148    3.24236756454009   -4.02732324891003
C        -0.44836072808260    3.87455774973791   -2.02336823173017
H        -1.52052266277356    3.87639539757041   -2.15489254287511
C         0.09076543751217    4.21679708316256   -0.79542016720949
H        -0.55609741207993    4.48306731075227    0.02950274105520
C         0.94899190088990    5.01861702160775    2.06997248129007
C         0.32538047212943    3.91062875981366    2.65193689597542
H         0.64816321892823    2.90066455532205    2.35581740749494
C        -0.69738758416189    4.08909351905676    3.56236861768151
H        -1.18479115745390    3.23499123471526    4.00914095963411
C        -1.09580646499656    5.37370414033004    3.90401876806837
H        -1.89292733795781    5.51641502692141    4.61812258150419
C        -0.47167991391303    6.47141461336230    3.33741681628239
H        -0.78098684547715    7.46917691845752    3.61105915141941
C         0.55303114187330    6.30036355516607    2.42079340632825
H         1.05005034957682    7.15948699297511    1.99506934596007
C         3.49865291322601    2.82012336059410    5.41753460678439
C         4.33058461654974    2.73752988956928    6.52594723624354
H         5.22975980815831    3.33431566981322    6.57701820779027
C         4.01232477774671    1.86737285585785    7.55438534418128
H         4.66388896009496    1.79311858265536    8.41252321861218
C         2.87141841831671    1.08552100127176    7.48201905346288
H         2.63502423432454    0.40281135492662    8.28434597826782
C         2.04125898786807    1.16360902780332    6.37463549611546
H         1.16121221662406    0.54102598332744    6.31229171541596
C         2.35649837575171    2.02456232922540    5.34152706150804
H         1.73410255225299    2.07525432285163    4.44765965141698
C         3.14313317889699    5.50219743490630    4.55029032884380
C         3.61684239144413    6.68053910245550    3.97901438656125
H         4.41904451687257    6.63941177571382    3.25532472554795
C         3.07234577664631    7.89697209368762    4.34312071823420
H         3.44927617838417    8.80673832497628    3.89898484467511
C         2.04796993966838    7.94884541047999    5.27495717362684
H         1.62544420196268    8.90053134125700    5.56075904881156
C         1.56797577987627    6.77891019890474    5.83973263099587
H         0.77024903468643    6.81671264294726    6.56663520986719
C         2.10735111499799    5.55841289570174    5.47730904331102
H         1.73026085426377    4.64580318320138    5.91708281158623
C         5.60079211233049    4.16246060399350    3.92336106119191
C         6.29954904291135    3.50246278352965    2.91198740550688
H         5.75654569839874    2.86750545910688    2.19533152346492
C         7.67199810035429    3.64168542269052    2.81290057276559
H         8.21258228698516    3.12610266383474    2.03324760197193
C         8.35152577949022    4.44398128124823    3.71591828133601
H         9.42326836924937    4.55147811238977    3.64046138932206
C         7.65903556399334    5.11406322655921    4.71213011556520
H         8.19116851605566    5.74491244414548    5.40900966572748
C         6.28644505752083    4.97867761662762    4.81853145824481
H         5.74179663363272    5.51441958633742    5.58434401194877

