69
CSD_code = PUVLEZ | q = 0 | S = 0 | Stoichiometry = C34H28Cl2N2P2Zn | MND = 4
Zn       20.95805342702967    8.92247262669382    3.13361086267258
P        19.19776127413123    6.75705874330101    3.04273847209122
Cl       22.85119562235029    9.91968308328303    2.44352833616540
N        20.08488214253304    8.49617012528424    1.25601428685382
C        19.03404254558053    7.70991149279724    1.48044668976973
C        17.97361300333944    7.63984774052554    0.58755347146622
H        17.12250803383757    7.01265784583153    0.80214359406531
C        18.02224958844517    8.40980525772997   -0.56293206083325
H        17.20338459873035    8.38839216953351   -1.26726854142155
C        19.13274909684893    9.20655217928267   -0.79600594097285
H        19.20719930834582    9.81675611618459   -1.68198867928730
C        20.14453416611063    9.22009768217740    0.14946872404354
H        21.03090696883026    9.82937597000055    0.03476361304830
C        19.57930933898245    5.13549319604514    2.28403331086892
C        19.18811611989435    3.96700136350566    2.93187384184687
H        18.61289138731914    4.03172341523638    3.84525596956785
C        19.52183665437511    2.73316157839354    2.40794320502016
H        19.19919648891154    1.83239247779165    2.90937713022253
C        20.26961351067255    2.65081139372210    1.24458872150026
H        20.52408513973110    1.68577867973109    0.83187850212365
C        20.70110942005504    3.80865531059794    0.62056650578055
H        21.30155008028109    3.74895893508653   -0.27570093452613
C        20.36616844554994    5.04620969171956    1.13999364063978
H        20.71759107004479    5.94532260210953    0.65192163410249
C        17.43515561020800    6.54886263302086    3.49038251322444
C        16.57760461854568    5.64763563676036    2.86327136903749
H        16.94422781987330    4.99622754189435    2.08117717509239
C        15.25210980296788    5.57262815522744    3.25032300104308
H        14.59030824333219    4.87456836016492    2.75713565691550
C        14.77104564966416    6.38859393736665    4.26189955408821
H        13.73374510487325    6.32568644834192    4.55667697999798
C        15.62129333718245    7.28194829826681    4.89065244850879
H        15.24985187553305    7.92017029614205    5.67865657670071
C        16.94939138747142    7.36051707159660    4.51026587246412
H        17.61389843088207    8.07145681602699    4.97901416716640
P        22.71817913931408    6.75706924911476    3.22446033413950
Cl       19.06480396704207    9.91952339547233    3.82360920646943
N        21.83102200281911    8.49609235024435    5.01126279803342
C        22.88182328729858    7.70978162213553    4.78685599489332
C        23.94230402176511    7.63977991182407    5.67971698548776
H        24.79338665890300    7.01254859674739    5.46515035522220
C        23.89374276765314    8.40984169357866    6.83013982622526
H        24.71251761933318    8.38829235508234    7.53456379064291
C        22.78325506118490    9.20661282708751    7.06319862052690
H        22.70875111820823    9.81674207853285    7.94923049381400
C        21.77144200117032    9.22011987718409    6.11774415888085
H        20.88508444557226    9.82942546727379    6.23243323062357
C        22.33678603107852    5.13551503124980    3.98328365736712
C        22.72792834272103    3.96701412922408    3.33542079946555
H        23.30310859805623    4.03172959458046    2.42201149975616
C        22.39412934761152    2.73317183893636    3.85930776349961
H        22.71678925319570    1.83239888521546    3.35788920971087
C        21.64633114460369    2.65082165981171    5.02264983993068
H        21.39190046657341    1.68579060335336    5.43538968271041
C        21.21485650487611    3.80867040872602    5.64667899405380
H        20.61444695098431    3.74897598010216    6.54296811437671
C        21.54987267041260    5.04622685928576    5.12729190130162
H        21.19843299807790    5.94534166072172    5.61535167463937
C        24.48081757030468    6.54886958383958    2.77688926030268
C        25.33836681218785    5.64761966567832    3.40398029516538
H        24.97174685381924    4.99620571060593    4.18607360053907
C        26.66386463202839    5.57259851132743    3.01692857152484
H        27.32566386006823    4.87453698681732    3.51012720323426
C        27.14494788161163    6.38858823779882    2.00538361724189
H        28.18225533865570    6.32569299696882    1.71062767010190
C        26.29470767443157    7.28195985157929    1.37664356283867
H        26.66615175056386    7.92018020978469    0.58862826414442
C        24.96660514131835    7.36053317737226    1.75702439003884
H        24.30209877406648    8.07144412136245    1.28822496404571

