80
CSD_code = PUVLEY | q = 0 | S = 0 | Stoichiometry = C40H35IrO2P2 | MND = 6
Ir        6.68723121614596    5.73207284045196   17.60382639123013
P         6.35473572734455    8.04652477739700   17.50162113933417
P         8.81429111022473    5.70952781059533   18.34709842000040
O         6.49110704377241    5.75579733533328   15.30278486561114
O         4.77339743222839    5.59512875213223   16.63743945648222
C         6.08344432364083    5.93471663707651   19.55916790784744
C         5.74104489813895    4.85274668642069   20.36696751750619
H         5.87431821317116    3.84735752522431   19.99710229304046
C         5.22309780472927    5.02647574869619   21.64009040687556
H         4.96582103895429    4.16261472283327   22.23614505156841
C         5.03004738697881    6.30034046085648   22.14191015338675
H         4.62459356578732    6.44711504185880   23.13238561951294
C         5.35483550139091    7.38877475934295   21.35505684573070
H         5.20091618812807    8.39093405032599   21.73388604698821
C         5.87628147720874    7.22224242741464   20.07745600620463
C         6.23032447959514    8.46558834041198   19.29570227636034
H         7.21433155825501    8.82691327730912   19.61621953772808
H         5.49779016637727    9.25885488397392   19.47311007414114
C         4.82023566931649    8.72270490251324   16.81401997200019
C         3.61938112677143    8.36896705655748   17.42589477757591
H         3.63735531650924    7.76747335277752   18.32488001289883
C         2.41852168308643    8.76313433005943   16.86866422213895
H         1.48825217122790    8.48670838885196   17.34321732052372
C         2.40562862736401    9.50026409911395   15.69394023825864
H         1.46546526454035    9.80299774606354   15.25632211624487
C         3.59731281070928    9.83777793213234   15.07383924613725
H         3.58716745071426   10.40313608054969   14.15291598122324
C         4.80387142545564    9.44455216914249   15.62538981919107
H         5.73500337458291    9.69719914925728   15.13574617128343
C         7.61450865890616    9.20512426919121   16.88137033039433
C         7.76144798440378   10.49698158583572   17.37340986127538
H         7.08239869451051   10.86886338298312   18.12753017107857
C         8.77529181780320   11.30558279837115   16.89337006879097
H         8.89038160713321   12.30876982402285   17.27832100154799
C         9.64402838134222   10.83410067531838   15.92135394367266
H        10.43793338149841   11.46876534970042   15.55523048841456
C         9.49293170565046    9.55239624881753   15.41803260642484
H        10.16740232634058    9.18311273373605   14.65887428138660
C         8.48060049381954    8.74055784558247   15.89732006321248
H         8.35267285901087    7.73739674766520   15.51421255025467
C         6.99689982972378    3.69384224467415   17.71942716322166
C         6.16106805243059    2.79643968764944   17.06105663426388
H         5.28086601798689    3.15759457636198   16.54773480925250
C         6.41340089043883    1.43339280814534   17.05086832357193
H         5.74228564103654    0.76748427176689   16.52642967939505
C         7.52075806555851    0.92688777697126   17.70454618195133
H         7.72737281132782   -0.13355635785128   17.69345288452249
C         8.36246017941674    1.79288047158890   18.38026749039239
H         9.22782751805178    1.40647641995006   18.90267565014292
C         8.10532800013387    3.15511906215223   18.39605228418858
C         8.99858608922619    4.08285531290367   19.18241126987320
H        10.04057887143218    3.75132341218729   19.20335453832174
H         8.62877315705410    4.16629288745968   20.20866017659536
C        10.14722547292536    5.61877578023448   17.11227665707905
C        11.48232219871124    5.72024957454513   17.49368680956945
H        11.73178754969332    5.90427426843081   18.53031120455051
C        12.48119443647944    5.59134352746020   16.54717407866911
H        13.51712586017881    5.67473885652746   16.84270871734939
C        12.15536427490696    5.35206797774801   15.22076124497067
H        12.93943048961584    5.25346493948952   14.48419937309354
C        10.82856927237926    5.23393965931115   14.84229314928195
H        10.57605636269359    5.03878268656846   13.81042974605508
C         9.82346607479381    5.36475177944793   15.78527865082042
H         8.78563143699113    5.26825203946940   15.49946559976301
C         9.38377833661112    6.99163689106011   19.50398843389508
C         9.02820009072056    6.93886932896021   20.84885147195149
H         8.50000778203443    6.07947070824849   21.23351833021789
C         9.32871258267720    7.99550351168589   21.68924427200992
H         9.05044799838786    7.94672806087885   22.73157775415261
C         9.97163848456364    9.11915587102464   21.19475005456070
H        10.19799484842181    9.94602925309624   21.85157441441556
C        10.31689374837988    9.18363720997245   19.85407540928560
H        10.80935638546098   10.06124793416360   19.46137602786164
C        10.02111468812260    8.12847502034159   19.01126032216623
H        10.28208042719872    8.18298479130516   17.96362640903731
C         5.25472141681089    5.70067106766397   15.47940621912161
C         4.30917718098326    5.77918672106003   14.30190763469907
H         3.60125295329650    6.58958531446485   14.46561215320450
H         3.75142915979328    4.84798142581699   14.22640586179375
H         4.86901340059273    5.94837048116361   13.38637766125925

