61
CSD_code = PUVTEG | q = 0 | S = 0 | Stoichiometry = C20H28N3O5PSSi2W | MND = 6
W         6.42767207193014    5.63404634110860    6.96562171006923
P         5.94685153010300    7.25013168294788    8.79516619101483
S         9.29456181972989    9.94439047369844    7.44804826318530
Si        4.21637368507403    6.07667883394027   10.92358536939027
Si        6.39393849486691    8.38896947949330   11.71880416871603
N         6.28311256773824    9.66141435475968    7.92885022535759
N         4.59328713069210    8.16779523214865    8.53681082317521
N         4.04587074769166   10.23899828912026    7.64427828134133
O         6.95108377790272    3.69001199379310    4.57473125431175
O         6.34545517973568    3.20797258457584    8.95244843860871
O         3.47638063208852    5.89278933996044    5.94251589372647
O         6.83991116479904    8.15780585758578    5.14129765484674
O         9.51647159176276    5.24532460997537    7.24667252309388
C         7.01572186588340    8.69127634817092    8.37813088293019
C         4.94259258557823    9.33755012190688    8.04713221973522
C         5.94157052546093    6.89629019663545   10.58458653271257
H         6.69928225036738    6.11795124171844   10.71553316390027
C         3.40629875709452    5.24621903631981    9.41662753842668
H         3.96938688211734    4.39840097797932    9.04053962641933
H         3.30618351197551    5.96911564575884    8.61404038001227
H         2.41128394239954    4.88882470650154    9.66751198537326
C         4.51783230419888    4.73875067762943   12.25048595840625
H         4.99459791596570    5.13680880631597   13.13842604268095
H         5.14383921949152    3.93756135854182   11.87009941061302
H         3.57514546058183    4.29751902784448   12.55355934413905
C         2.93575162780877    7.36951592583598   11.50131169478072
H         2.00341082601987    6.87475428093538   11.75518125162808
H         2.72630284243147    8.07232176038094   10.70139513788115
H         3.25365743122273    7.93471761736745   12.36929954174093
C         6.04257869559435    7.87395948142527   13.52446174104334
H         6.66211151099218    7.03192022591335   13.81569977331404
H         5.01021044919845    7.59772610614448   13.70082556446485
H         6.28194557980930    8.69416658450306   14.19322173404189
C         8.26052595345559    8.80733649540642   11.71323949764131
H         8.49807367805903    9.39473155971276   12.59527357259389
H         8.55512846194237    9.39143062174026   10.84832236389557
H         8.88441883344950    7.91942203078414   11.74261010084772
C         5.43703302103406    9.97810950584123   11.28213005308973
H         5.43824775592952   10.66929753888360   12.11988592023360
H         4.40561427502933    9.77436056784979   11.01888181552384
H         5.89490865933429   10.48681791661326   10.43880431463162
C         4.43251892057867   11.52835683154093    7.13319119729653
H         5.51725736455041   11.58037253142392    7.09719677632701
H         4.04796346122530   12.32128033996134    7.78064326644375
H         4.02620142307393   11.66817565107253    6.12843644899016
C         2.63582870923989    9.95550327298905    7.70702505535620
H         2.50203212203908    8.92491037134303    8.02642711269383
H         2.18334393035105   10.09420613156541    6.72240102208416
H         2.14357594964321   10.62585323300731    8.41712787578785
C         8.43155680829487    8.69358842692793    8.29599084437926
C         9.29853497826063    7.76954784745960    8.82998231315947
H         8.95979850587017    6.92748893922143    9.40915141180258
C        10.64243632294851    8.05965516272894    8.55895594979877
H        11.46568173779658    7.45135591692636    8.88679784572716
C        10.78915092926989    9.19930095229316    7.82327353153637
H        11.70133475850503    9.64370665042802    7.47680293095594
C         6.74815068356630    4.39482747931211    5.45347442979806
C         6.28366455167556    4.07906011451003    8.21118365128271
C         4.50579365796939    5.76228321435093    6.41908402445475
C         6.68854080331859    7.23567871584938    5.80074510198910
C         8.39310916528746    5.46956277931956    7.25426125059877

