112
CSD_code = PUVVEJ | q = 0 | S = 0 | Stoichiometry = C44H63N2OSiY | MND = 9
Y         0.75036249351786    0.72278667308250    4.13000262803183
Si        0.51955762758463   -1.40240916903712    7.11288023816605
O         2.89397932973861   -0.97337776768457    3.70887521640680
N         0.34416277084874    3.13595153895059    3.97457851781758
N         2.39281567726146    2.36558503818883    3.53322263286518
C        -0.46728515518494    0.61471007096630    1.69379382872004
H        -0.19034803459105    1.25812689147317    0.87118324855261
C        -1.52039759417216    0.83771743787918    2.60201180519194
H        -2.18021098245901    1.69400623682567    2.62063033439551
C        -1.64913862587386   -0.30749829428880    3.41234273668902
H        -2.45465561010035   -0.49432235500003    4.10909940881547
C        -0.67876324774176   -1.24995769011068    2.99633960529533
H        -0.62422713052904   -2.28045240765728    3.32122691765187
C         0.04946135199176   -0.67667541531602    1.93037430207485
H         0.75266205150067   -1.19738305407327    1.29491298427779
C         1.60521053364807    3.42518053065516    3.69587734843725
C        -0.70606964805755    4.06744392402064    3.97386465391311
C        -1.43932095859092    4.24205343388687    5.16379296459926
C        -2.54877780573283    5.06962728967038    5.17440545102024
H        -3.11681379258599    5.19214070666920    6.08413069916922
C        -2.93780750785556    5.75018075216524    4.03640034583993
H        -3.79937079169457    6.40108723071836    4.05753648158418
C        -2.21668828039631    5.58532053546986    2.87175112051552
H        -2.52589109668165    6.11517864941011    1.98324065321221
C        -1.11030074826404    4.74950736820909    2.81180561782441
C        -1.02969262928258    3.51366447944769    6.42484779372356
H        -0.00784343776252    3.13728012619325    6.28247338577720
C        -1.02470104059389    4.42138930001378    7.65686768203692
H        -2.03381157939884    4.70488939342809    7.94440262228711
H        -0.45512378159780    5.32906710191373    7.46688685043401
H        -0.57039563222791    3.90045248154026    8.49768113583440
C        -1.96007991136554    2.31619254095461    6.64213808469373
H        -1.69926352725420    1.79164137720299    7.55976245179265
H        -1.87723999727753    1.62064446577490    5.80308690979630
H        -2.99295426112221    2.65113947260776    6.71599820796944
C        -0.40587936437266    4.58229199685385    1.48549932201651
H         0.41398197905017    3.87039651450037    1.61869665787497
C        -1.35397650829780    4.01430238194098    0.42503377074507
H        -2.15838690918838    4.71324414415635    0.20899226270323
H        -1.79525323428839    3.08060716618702    0.76138138583304
H        -0.80896732981593    3.82831320823739   -0.49885345259884
C         0.17357626381464    5.91294720636590    0.99688829650114
H        -0.62462288969263    6.60022430725622    0.72643906660813
H         0.79592912340435    5.75220667946536    0.11844017409097
H         0.77828739066864    6.38225099850859    1.76811084233907
C         3.78210814134626    2.44140986617307    3.37937041950214
C         4.62191616519909    2.92443950838365    4.40081294359394
C         5.99361333192982    2.93792802822967    4.19111391231894
H         6.64511995652508    3.31268748768240    4.96609604758308
C         6.54436805971935    2.48490143295274    3.00944298220510
H         7.61301313187163    2.52189715373439    2.85772304127338
C         5.72110279088814    1.96721596853882    2.02561135804625
H         6.16528783557209    1.60195636110322    1.11288963567202
C         4.34728009347798    1.92049410299711    2.19479919189460
C         4.08270357773160    3.37211570468830    5.74202627206204
H         2.98848549196298    3.35161174807883    5.71172310119707
C         4.53195694498792    4.79497398032899    6.08393214141247
H         5.59813227458720    4.82285214281893    6.29555025472127
H         4.00260513827411    5.15225294099419    6.96470204133445
H         4.32909630378839    5.47417536161890    5.26070866241438
C         4.53340659979476    2.40837188824068    6.84529153179648
H         5.61859211027306    2.37113003630296    6.90776802424191
H         4.16625341905241    1.40279699716694    6.65113279369235
H         4.14404577447985    2.73638329487649    7.80671807012581
C         3.44723650806059    1.32695164624921    1.13119700162737
H         2.60875611729468    0.83826962435019    1.65264346762638
C         2.86384566455688    2.41810301305965    0.22764682359911
H         2.22793299451934    3.09086997858780    0.79578367507610
H         2.26334506687904    1.96791653845064   -0.56077971127741
H         3.66245292366199    2.99625471395519   -0.23566966590467
C         4.14846803968344    0.28454078561519    0.25799977940440
H         3.40807425510310   -0.26549079853070   -0.32050848486682
H         4.71350169742100   -0.42273803306645    0.86056223829615
H         4.82871963765270    0.75892087496871   -0.44645566798087
C         2.10410879019219    4.82326797214901    3.62274771324835
C         3.06089029334815    5.21572029029903    2.69060657055890
H         3.45762099989445    4.50338239208867    1.98685193539912
C         3.50680127931353    6.52467887640459    2.65031421636331
H         4.24705064351607    6.81244247424298    1.91833210605550
C         3.00754597829512    7.46206409861226    3.53841657509900
H         3.35377504967575    8.48441836638591    3.50172654981704
C         2.06541426449543    7.07793886302488    4.47792936788786
H         1.67642921576085    7.79940166859295    5.18121808142285
C         1.62045939724317    5.76992907996483    4.52379259325574
H         0.90094190789767    5.47879117679492    5.27192308363355
C         1.10648005720905    0.23948412753812    6.38096908928346
H         2.18726497240092    0.29736043341427    6.56718126671110
H         0.67870084580207    1.02976398573268    7.01039304323240
C        -1.37835953528249   -1.60742335939238    6.99451537076481
H        -1.90133611331038   -0.73774986594428    7.37883505060565
H        -1.70886609871938   -2.46605890849127    7.57117419654593
H        -1.69892813117470   -1.76081225668446    5.96942900531820
C         0.98143891648614   -1.58631595763700    8.96753095612359
H         2.05123220100487   -1.48239794713412    9.12230105219535
H         0.68713482168002   -2.55399099969394    9.36167739395355
H         0.49189664032104   -0.82713277619200    9.56947405283458
C         1.31727832240754   -2.89457585594656    6.21362559453646
H         1.18069848861829   -2.81958573031694    5.13944024931648
H         0.86957201790471   -3.82874003364723    6.53807510582190
H         2.38245412366822   -2.96050557330179    6.41267918336604
C         3.02676352688290   -2.14815360133888    2.89272264155728
H         3.06309703909392   -1.83456247477527    1.84415197347233
H         2.15131886324269   -2.78605402196515    3.04016328607975
C         4.32840770978444   -2.83674416702766    3.29884711351743
H         4.79371565281011   -3.35546979330877    2.46403692720259
H         4.14666579568628   -3.55161091451674    4.10175224943115
C         5.15454789012864   -1.66345679647953    3.81671944824612
H         5.94330472750339   -1.96269958952920    4.50210592392823
H         5.59547128426007   -1.10316068534006    2.99180582434311
C         4.07979120547047   -0.82852263268015    4.50070953306363
H         3.88213350697803   -1.21057484498104    5.51109043693467
H         4.33073585422358    0.23278913492323    4.54805016665086

