59
CSD_code = PUVZUC | q = 1 | S = 0 | Stoichiometry = C27H24ClN6Zn(1+) | MND = 4
Zn        1.25779040030931   14.99979058270600    5.93721182063842
Cl        1.68182198470981   15.50794718184956    7.92813685969723
N         0.72604697547019   13.01196404224702    5.80179284350477
N        -0.54212428943964   12.58044522404877    5.88215757752608
H        -1.31064834945225   13.21756545176688    5.74022006150520
C        -0.61769476450558   11.27613833742062    6.21280096314060
C         0.69889548106548   10.84354952480355    6.34722944767034
H         1.03952742142387    9.85954556164782    6.58957800381318
C         1.48541890005254   11.95616650053642    6.08586831764592
H         2.55554419408662   12.03682940907648    6.10115026893402
C        -1.86892005369766   10.55762587335357    6.36801438434985
C        -3.05044996596021   11.03057535291630    5.79283159684755
H        -3.04650579842659   11.93235365095177    5.19696598905784
C        -4.23171002689294   10.33212209748457    5.95301714270623
H        -5.13841917338118   10.70358697466868    5.50060843425063
C        -4.25396582163566    9.15773296868942    6.68838742700152
H        -5.17873210238709    8.61629175404068    6.81227214382144
C        -3.08630963020025    8.68008009858871    7.26165041600390
H        -3.10053059187443    7.76655311936159    7.83544883925700
C        -1.90067251979877    9.37119571033798    7.10302613329898
H        -0.99707177314744    9.00404506114034    7.56312775100647
N        -0.34350410951074   16.10047557022250    5.25168414733051
N        -0.33625458086996   16.97744210214570    4.23517217053356
H         0.39596043572459   16.95703169101635    3.54258234486423
C        -1.39167021701937   17.81555028885741    4.27786287002352
C        -2.12321412638284   17.44485311720861    5.40290042035270
H        -3.01934067338301   17.89429820592672    5.77428058674953
C        -1.42657014225288   16.38758520540879    5.97042841578241
H        -1.65335495195338   15.83802021162153    6.86409441037390
C        -1.62681624811575   18.86369272632640    3.30219094264611
C        -0.59166185473622   19.35174055196195    2.50169402358640
H         0.41304190232235   18.96932086345077    2.61265563398006
C        -0.83456956130477   20.35468586880982    1.58296116984986
H        -0.02646757269371   20.72886393543963    0.97332212417746
C        -2.10829006419425   20.88328232414377    1.44680455054478
H        -2.29356375146140   21.66641886803817    0.72845013900250
C        -3.14123938250842   20.40727104078046    2.23844825257662
H        -4.13358035677951   20.81824967722199    2.13646789051763
C        -2.90541378706697   19.40639312862446    3.16089819747697
H        -3.71449987422929   19.03142617776230    3.76746526992061
N         2.84475554690320   15.26222992760210    4.66103777087781
N         3.42429794243825   14.28896069588234    3.93897445158028
H         2.93480473621870   13.42759510857037    3.75182012506796
C         4.65607096391421   14.63646079837909    3.51411395862417
C         4.87520508876745   15.92227462971484    4.00062600238559
H         5.75227361491822   16.52204534154277    3.88198423162522
C         3.72862105128595   16.25609739520506    4.70797094484148
H         3.50832492831336   17.15796469645052    5.24629810328880
C         5.50671402690608   13.76662188332796    2.72291869212421
C         5.30698024337026   12.38442335193001    2.70493237751092
H         4.52204653599428   11.93687110301931    3.29807908202335
C         6.13362059271007   11.57034230726109    1.95474425376974
H         5.97496388042659   10.50285998258787    1.95312343949486
C         7.16593222785551   12.11956144545554    1.21103708884862
H         7.80925889641718   11.48038419761810    0.62689535593381
C         7.37243574217820   13.48979612914609    1.22335822235997
H         8.17598379842655   13.92014889765616    0.64615095698602
C         6.55218143363162   14.30976171081224    1.97396778927313
H         6.70954716939566   15.37679436523410    1.97260717141311

