41
CSD_code = PUVZEM | q = 0 | S = 0 | Stoichiometry = C18H16Cl2N4Zn | MND = 4
Zn        0.91362137142425    6.72287189285016    4.39985199063955
Cl        1.94871310021773    4.69312473602318    4.96303357598266
Cl        1.33752050958567    8.12805612245707    2.83445006707826
N         1.12277828365132    7.48931654638659    6.32370049417123
N         1.69154249132757    6.66036670433126    7.19806352615632
H         1.94067244385885    5.72765519992078    6.86351452679329
C         1.90837028761401    7.25124184756364    8.38561552507155
C         1.42659567693526    8.55276430514160    8.25549753426052
H         1.41291172820492    9.32285330156095    8.99783649720253
C         0.95110864858238    8.64463967045063    6.95308036843173
H         0.50346587875793    9.47908273786332    6.45071317537889
C         2.53077180208780    6.57741591765930    9.51244171624128
C         2.97069193700525    7.31445161019507   10.61263547270632
H         2.85107794080587    8.38647637795045   10.61947873032670
C         3.57141822669875    6.68318307115217   11.68467501971303
H         3.91064306458539    7.26578648519391   12.52815353989208
C         3.74243936335773    5.30855196613265   11.67774753847352
H         4.21365906037375    4.81674528786008   12.51531275430823
C         3.30740311795718    4.56754974160941   10.59112419379743
H         3.43836186412163    3.49583592611933   10.58130634312076
C         2.70593282811567    5.19230980153181    9.51518675794499
H         2.36691923035379    4.59868379002071    8.67965089301190
N        -0.97331658873599    5.85024589974907    4.27670127233941
N        -1.00608233140171    4.54452809611918    4.54002956945242
H        -0.12804479862756    4.10114595876065    4.81635919692686
C        -2.22104331295654    4.01531987695366    4.31608780653302
C        -3.02314883474652    5.07272903971652    3.89023967985965
H        -4.06045199531457    5.04368942324117    3.63044576942602
C        -2.19471268150540    6.18832129217511    3.88380298952984
H        -2.42136950904495    7.20100241888899    3.61516106055277
C        -2.52748980276176    2.60778010340187    4.50623685714691
C        -1.65413150620110    1.76884351676737    5.20083270996081
H        -0.74077087874310    2.16175798793235    5.62141130306920
C        -1.95535885862251    0.43004176994923    5.36400809248325
H        -1.27169436261523   -0.20933586359885    5.90217648656584
C        -3.12638460280064   -0.09313074197723    4.84047520375839
H        -3.35662827914240   -1.14009497385553    4.96797979686113
C        -3.99996371284145    0.73215147862233    4.15148821633327
H        -4.91300326180621    0.32895995380720    3.73949398955646
C        -3.70554645258570    2.07163224044350    3.98492410239552
H        -4.38417708521339    2.70634948216076    3.43697565630770

