90
CSD_code = PUWKEX | q = 0 | S = 0 | Stoichiometry = C39H45FP2PtSi2 | MND = 4
Pt       -1.64445006172354    4.27289722903450    5.96408789583151
P        -2.38085079046957    3.49502242423314    3.80229619668310
P         0.72137199521635    4.25167679735769    5.36838010039916
Si       -1.18190279134260    5.16285807606920    8.08111817173453
Si       -3.81851358012421    4.26162478013784    6.86718871633849
F        -7.21132549659512   -0.82432389314678    9.29518841552062
C        -2.78866597386052    5.71639872600329    8.99742331600429
C        -3.72240242309064    4.58698393718281    8.74710506575845
C        -4.07188795645848    3.76436485019189    9.73641923398832
C        -4.90691356960990    2.57186056466765    9.61623683930253
C        -6.16708044865095    2.62385286208946    9.02652133274013
C        -6.95133677454739    1.49125284750439    8.92289267521399
C        -6.45601547634183    0.29622286674347    9.40768314199297
C        -5.21572896663527    0.21058940088354   10.01238188082515
C        -4.45194749723091    1.35609797707273   10.12375736282484
C        -0.65236626475726    3.64733365879568    9.12258590582193
C        -0.67529996741779    2.40336038773754    8.49997296325183
C        -0.44658221976691    1.23769331710778    9.20584128115499
C        -0.18404951678486    1.29895543703766   10.56500740944996
C        -0.15670620322075    2.52720674462935   11.20320494241028
C        -0.39425219617948    3.68740663872966   10.48609956617024
C         0.02970801092955    6.63456838237654    8.19031447144162
C         1.12286494015447    6.66184963214270    9.04644986932233
C         1.99139440534230    7.73991499100720    9.06315750733032
C         1.78001939067493    8.81338448595947    8.21470840122942
C         0.69491339579295    8.80198076839992    7.35337319190105
C        -0.16722761135478    7.72064787854563    7.34475600837178
C        -4.77986163305740    2.67003240657731    6.45348237751285
C        -6.03797072410930    2.67282249483047    5.86624825104876
C        -6.68127409230348    1.48906524215883    5.54891213910468
C        -6.06832333521654    0.27576812623827    5.81097310726537
C        -4.80778989153661    0.25655064475864    6.38490821336112
C        -4.17210419859883    1.44427476070455    6.69519870606281
C        -4.64712445099355    5.82275860031514    6.13259179179561
C        -3.87487390938497    6.64518486637748    5.31795890964120
C        -4.38476295266952    7.81095378443336    4.77861823738886
C        -5.69333387608219    8.17793773910255    5.04953788131301
C        -6.47359715189836    7.37969288205502    5.86844934062103
C        -5.94985887695627    6.21653365442308    6.40675618189914
C         1.93118094843101    4.12863908553613    6.74058126002476
C         1.41887317241391    2.91598561270360    4.30205471265767
C         1.36476049996284    5.75903217635600    4.53852441006823
C        -2.17475542293167    1.71082148517514    3.41714505610455
C        -1.57784112450886    4.29515872486931    2.34881061011947
C        -4.12165370190755    3.71799288767002    3.27462010932232
H        -2.64308948290305    5.89948861658812   10.06075836151186
H        -3.16822062088822    6.62907459495178    8.54059518393641
H        -3.69984484125105    3.95256246022555   10.74079541471893
H        -6.53461860619529    3.56985129383765    8.66044457481813
H        -7.92985765932785    1.52204195089301    8.47008025558700
H        -4.86546697845364   -0.73935993167154   10.38558975879813
H        -3.47680280575808    1.31084167609762   10.58730226810897
H        -0.89017444523732    2.35847993770415    7.42861579115453
H        -0.47819725464888    0.27916453804634    8.70561003653772
H        -0.00782902525016    0.39164085742211   11.12558178454939
H         0.04076575676081    2.57727351568468   12.26529424246222
H        -0.39084001999590    4.63920771175307   10.99835887530299
H         1.29872037817970    5.82486194943061    9.70703354987330
H         2.83611773610872    7.74380201444692    9.73811343376797
H         2.45733469386754    9.65545331003129    8.22484216966815
H         0.52511521011542    9.63820553611590    6.68899703408782
H        -1.01423628116754    7.71005140646574    6.67178359980054
H        -6.52255163895811    3.61583380977452    5.65647886246938
H        -7.66365913066060    1.51099563428412    5.09730783565543
H        -6.57116602498142   -0.65018575901546    5.57221876915181
H        -4.32456383611295   -0.68843848777304    6.59125238341625
H        -3.19091606358854    1.42866633876628    7.14911947764813
H        -2.84032309947998    6.35503861594916    5.11435163262009
H        -3.76848231631141    8.43873779432946    4.14915642878260
H        -6.10042244909845    9.08678311516993    4.62954698817458
H        -7.49128256792604    7.66936772964898    6.09067076383652
H        -6.56097210412721    5.60995734148310    7.05986250179604
H         1.84990106000193    5.01007227861296    7.37098896283403
H         1.71093634064437    3.25250905950691    7.34652094640490
H         2.94397340658293    4.05480725365670    6.34592866363692
H         1.29159895423008    1.96554492965638    4.81801877134451
H         0.90729765547673    2.86030315219392    3.34449066639925
H         2.48083650602259    3.08793899767402    4.13025821184842
H         1.19745121967461    6.60465140385004    5.20413399773456
H         2.43068782539283    5.66251302264695    4.33609309355301
H         0.83223267721438    5.94070919108858    3.60760362736214
H        -2.79611015293760    1.14504115684008    4.11000195337497
H        -2.48585774754287    1.49737839302753    2.39518996064516
H        -1.13933798801441    1.40749181919530    3.55421916639483
H        -1.84733856719358    5.35030592846542    2.35124366787205
H        -0.49502962247934    4.21693360633369    2.40117574353839
H        -1.92726784582669    3.84003981640174    1.42259189802321
H        -4.76893199286644    3.09821840635463    3.88939953096837
H        -4.41359316932452    4.75743722055334    3.40859396591407
H        -4.23554071090090    3.43801984925919    2.22786203504717

