60
CSD_code = PUWLAU | q = 0 | S = 0 | Stoichiometry = C18H37NOSi2W | MND = 8
W         7.96554027629056   14.83949956012216    6.15616466753827
Si        6.56722567322687   11.80894788559147    5.08846343848434
O         5.06215414922838   14.85645069077622    6.69783880087415
N         6.22815504295164   14.85096743757522    6.40306583515636
C         7.81189062517279   13.19259281286766    4.69930004221904
C         4.84850114070387   12.28975309152512    4.41336042190881
C         7.10523180831323   10.14998114445968    4.29222884503881
C         6.42824954709756   11.51957644447623    6.97769821989608
C         9.00017962646763   14.13314814634702    8.15067551586750
C         9.82881437284533   13.69797619766367    7.07232571284136
C        10.31075483257011   14.85292480606542    6.39202254543375
C         8.51772703705709   13.29417468070199    9.30091020492588
C        10.29080371170764   12.28240901439519    6.86822133890863
C        11.32585778334945   14.85584334730553    5.28443071755765
H         7.48463933494250   13.63388845447351    3.74507411382955
H         8.80812176459390   12.76826448954395    4.51391366519193
H         4.49427718730736   13.19409733698906    4.89725759114170
H         4.11797545092324   11.50802672198378    4.59662280289813
H         4.87279743610220   12.47357529130826    3.34363926442274
H         6.40431268478817    9.35808997622384    4.53345830431944
H         8.08514660730947    9.83463592705338    4.63767321100682
H         7.15024674622784   10.22803857586731    3.21101770291937
H         5.49806340721444   11.01352487150205    7.21561178409767
H         6.42656057722562   12.47272159424144    7.50288433825810
H         7.23362270117159   10.90581027892580    7.37117108076976
H         9.18657330946407   13.42387172606265   10.15572428804288
H         8.50043231749691   12.23919094633174    9.04031814766943
H         7.51652278971194   13.59073774391291    9.61373092396738
H         9.45306239304919   11.58612835506257    6.85177490538953
H        10.95724215507402   11.99529971243275    7.68490327907706
H        10.84194582603062   12.17533037179260    5.93642977569084
H        11.22875073747178   13.97290975466282    4.65357032644698
H        12.33670648642905   14.86278372876689    5.69953042793730
C         7.82095500051062   16.50345737545224    4.71493342554532
Si        6.57313959971445   17.88706636406549    5.09328349277953
C         4.85877046084793   17.40673678948442    4.40665574991132
H         4.49897920389125   16.50506898921271    4.89142100546144
H         4.12847229991192   18.19070705153231    4.58140176590201
H         4.89061037059296   17.21870777418680    3.33778250280361
C         7.11734423850694   19.54322607051911    4.29528727245088
H         6.41627931872286   20.33648231069035    4.53154254492037
H         8.09605921977740   19.85826277722442    4.64430244290711
H         7.16692797824830   19.46262768813483    3.21445851488427
C         6.42251791182301   18.18078923647405    6.98051342943573
H         5.49032787406721   18.68620572253968    7.21165554969747
H         6.41887879582021   17.22899725893983    7.50751141914149
H         7.22504095593107   18.79597145968808    7.37739976073161
H         7.49980898824294   16.05742007462693    3.76049272170996
H         8.81755769496381   16.92759974762915    4.53361518775931
C         9.00219816622701   15.57007409771591    8.15338469345156
C         9.82565835673974   16.00736916799936    7.07513579244238
C         8.51412551182165   16.40697332880105    9.30230171988176
H         9.18004723457312   16.27732347759261   10.15938959714630
H         8.49639414770578   17.46195442426204    9.04218265165551
H         7.51220858807713   16.10885795880701    9.61102254519687
H        11.21860499777556   15.73429968394418    4.64894119623272
C        10.28717043211842   17.42313588230439    6.87271270656535
H         9.44875356981382   18.11833137559158    6.85356377360162
H        10.95055235484530   17.71049361416293    7.69172153201337
H        10.84133118920685   17.53068918140596    5.94287476604733

