32
CSD_code = PUWPAA | q = 1 | S = 0 | Stoichiometry = C10H18N3Pt(1+) | MND = 4
Pt        4.34580592409137    7.08301401441425   13.15672633884541
N         2.94960211561788    5.98215576351238   12.10774251995197
H         2.03039456153580    6.41248730369152   11.98052590363837
H         3.33942218458543    5.79280684734226   11.17841892736761
N         3.44878496140188    9.17128468412947   12.97353120274988
H         3.66476193262077    9.51642923576762   12.03861802413021
H         2.44617362042058    9.27693181448171   13.10560713340013
N         5.77400124908631    8.13991620874384   14.21228166383317
H         5.61168698764090    7.95744719426127   15.20822465211317
H         6.72178975441922    7.82344207612426   14.00046890550638
C         5.14310912463019    5.25122167023810   13.37456559542929
C         4.20360259293029    4.23550165891774   13.15515904914147
C         4.56070304197523    2.90073022620021   13.24742492812201
H         3.82331449620025    2.13122547823408   13.07432062183050
C         5.86601359623307    2.56162797645048   13.56015352837133
H         6.15050023041621    1.52404385960669   13.63506801876167
C         6.80508328645931    3.55498790843196   13.76857713411268
H         7.82442905335065    3.29226267781023   14.00626064249675
C         6.44920222178771    4.89380251238951   13.67283059342027
H         7.21760331295651    5.63838825346620   13.83197627921339
C         2.80276051018034    4.69648441979576   12.84131627015631
H         2.26016667721231    3.96114387106752   12.23480103546627
C         2.03484574779399    4.97738958242024   14.13046545225025
H         2.00252189447263    4.08469572398190   14.74735574622851
H         1.01421974775226    5.29093248065652   13.92198791779229
H         2.55451729361919    5.76488336168047   14.68775155563453
C         4.17289174174898    9.97556361520585   13.96862342500055
H         4.07448888483299   11.05129398735349   13.78446911647591
H         3.75693942762015    9.75717089260271   14.95679604432975
C         5.64966670805439    9.58316374556984   13.93734258885793
H         6.05832203233307    9.78043516704281   12.94188931874095
H         6.20917508602056   10.17933578840847   14.66541986663288

