73
CSD_code = PUWRAB | q = 0 | S = 0 | Stoichiometry = C34H32Cl2N2O2Ti | MND = 12
Ti       16.19334958744017    6.89709548371090    3.33830052741313
Cl       16.83280109999850    5.33370320740245    1.88463679790264
C        18.38404171290609    6.65650615560551    4.16958618960147
C        17.63495617975698    7.30253635197967    5.17951523001106
H        17.49417191258159    6.93333576945969    6.18699142425471
C        17.21615845939489    8.55460574752168    4.68968913462720
H        16.74108135504531    9.32655847041226    5.28017797608961
C        17.72422371737958    8.70203084580360    3.37836448360392
H        17.70158785605270    9.60894989463849    2.78952377312716
C        18.43183401777164    7.52926740576889    3.05148431399119
H        19.01390157413413    7.36540200151933    2.15241451035350
C        19.09780773482004    5.33528179276600    4.30403592943372
H        20.01317721231448    5.36026817164634    3.70374337907411
H        18.45892728020306    4.53545368049456    3.90854630468888
C        19.41318338742828    5.01149984477334    5.72761833972685
C        18.65471724620360    4.30812003846893    6.62680977746159
H        17.68278741729836    3.89728242120411    6.43443791691551
C        19.38272636003255    4.23053861542753    7.83127343350187
H        19.06897772035587    3.75222983983140    8.73793061479910
C        20.56685660750027    4.87663071743611    7.62341728284481
H        21.38572675241068    5.05741241946759    8.29167128753478
N        20.58583996994996    5.36432196062562    6.34629624266166
C        21.65977536026898    6.08263296163158    5.79962259595336
C        21.45368331738816    7.26991909307116    5.09947272041884
H        20.45342225346088    7.65397744928382    4.97576501052143
C        22.52406713687756    7.96510883047787    4.58248490696020
H        22.37553360206040    8.88420402523120    4.03842066404253
C        23.82971544591735    7.50452467681488    4.76172756372002
O        24.81118961046154    8.27276210687787    4.21339245954973
C        26.14915284575822    7.86732625347062    4.36892323855863
H        26.43768791659117    7.82794821028387    5.42435930955537
H        26.33103480487641    6.89239257036118    3.90516607958313
H        26.74663342374645    8.62309978935154    3.86158106303425
C        24.03793265194668    6.32759680753664    5.47261625442362
H        25.03215615635966    5.94208726031937    5.63357084678202
C        22.95930706403674    5.62585691889389    5.98112508084472
H        23.12865124795511    4.70589853582625    6.52048816844764
Cl       15.55584647007329    5.32893171815998    4.78774548766462
C        14.00261523215705    6.65605310871138    2.50668806215030
C        14.75092695645711    7.30534767368591    1.49829299153376
H        14.89200581054745    6.93879469999462    0.48988827616639
C        15.16853123880823    8.55662883545990    1.99119557761155
H        15.64271746191334    9.33054721591810    1.40256172044288
C        14.66041745385336    8.70028598467760    3.30292173258721
H        14.68212982616249    9.60577283896518    3.89399322011247
C        13.95413113819008    7.52595328894079    3.62699481868589
H        13.37233808458698    7.35924364759599    4.52571915800194
C        13.28976221005292    5.33466398839683    2.36910398162253
H        12.37279972665742    5.35883790886095    2.96702467266463
H        13.92785551324816    4.53474254246258    2.76566149892736
C        12.97807020587362    5.01185569082301    0.94450140884982
C        13.73869139131679    4.30892599766983    0.04678299207113
H        14.71017332683504    3.89802858280089    0.24124328040195
C        13.01360257654301    4.23200058898794   -1.15948372541090
H        13.32954374173508    3.75416426896549   -2.06562834514668
C        11.82898026525666    4.87799755191347   -0.95416140146786
H        11.01172817189265    5.05914647205496   -1.62429558908113
N        11.80690347358249    5.36500638297797    0.32317323381880
C        10.73174945555596    6.08334078092019    0.86742536174736
C        10.93629321701824    7.27048234769798    1.56827565014908
H        11.93631318007624    7.65427701560541    1.69468754447893
C         9.86472488669533    7.96591017016042    2.08247669047147
H        10.01206154718910    8.88494122221189    2.62697339164671
C         8.55943516238092    7.50569854698849    1.89971215776766
O         7.57670614099621    8.27425522917251    2.44534827489496
C         6.23901761308355    7.86950033965292    2.28574678071731
H         5.95374172547126    7.83008128530448    1.22942696274891
H         6.05517656271470    6.89474853412230    2.74911453183012
H         5.64036935401740    8.62568598051940    2.79109494767341
C         8.35280522053649    6.32880049357683    1.18831237316978
H         7.35891873550778    5.94349919709950    1.02479680277922
C         9.43259247391403    5.62683953359663    0.68257569031215
H         9.26444645052368    4.70694400994066    0.14272895538101

