79
CSD_code = PUWTOS | q = 0 | S = 0 | Stoichiometry = C42H31I2N3Zn | MND = 4
I         5.52864329588465    5.51845715949850    8.59928893154041
I         4.28687933665750    1.02665940456134    8.42244998087427
Zn        5.20191653464810    3.15554238961694    9.41147405529176
C         6.61379751731960   13.13692599726685   23.61202598324651
H         7.09479334208209   12.72566248462701   22.73652583514546
C         2.36988873492436    5.69271532212321   10.93146617407436
H         2.87792942436038    6.55223634793735   11.34357660475204
C         1.11719263533333    3.48221545787747    9.81318896657764
H         0.63220806405284    2.61964252299941    9.38171994294574
N         6.36234846764467   10.89394243029683   24.50946808700850
C         7.17348782250335    2.47843728485997   11.53319297406150
C         6.19243077880788    8.89404136645750   25.87632851825116
H         5.48034896935682    8.48364287630888   25.17523934065004
C         2.84426171468043    4.41264684147401   11.20685417040038
C         6.18106163210537   12.28026917874280   24.62316682878769
N         5.00647937131688    3.46200142677810   11.51947666618777
C         5.92330709614674    6.59829532238491   17.78291115621455
C         9.03171182909347    1.03995988809854   10.14233282110382
H         9.74356209770115    0.48626423068335    9.55248786550090
C         4.18692616556442    4.85539075458118   13.26552238153938
H         3.37566642959991    5.45252470157638   13.65061074242444
C         6.14147277828523    3.28514151270599   12.20242268263688
C         2.20451308008169    3.30678437150634   10.65042038009802
H         2.53328425904011    2.31050758916636   10.91039162527027
C         7.99384271418981    1.71890354827764    9.52737942080551
H         7.87572134776832    1.70228091823280    8.45200487805733
C         6.73231208207271   10.15839780049362   25.64460197156059
C         6.56186102029998    8.17608825974469   26.99720187077304
H         6.13551019143167    7.19840846957198   27.16704615039765
C         5.83461356669861    8.97096989992531   20.80315252463553
C         4.04577008813107    4.23161357760316   12.03209639833878
C         1.28987507726755    5.86104871878432   10.08552239789502
H         0.94264004924409    6.85681577358167    9.85537604904742
C         6.41265164863081    5.30840272282727   17.54191433929208
H         6.93527518162211    4.78781945478944   18.33192407594134
N         7.09302037212645    2.41429460479878   10.20259326470041
C         6.77514171499879    8.51092493077870   21.73233683590353
H         7.39528937632745    7.66046515244091   21.49513714971139
C         8.17566375310948    1.81007671798837   12.23246687547321
H         8.20384697240782    1.84052588346837   13.30970582403650
C         6.18527838544703   10.25899424085993   23.28586886249455
C         5.55198175548593    5.33233257405383   15.29290721190019
C         5.61641129076845    8.35665722423417   19.51467012580743
H         4.93989754252188    8.90374192096241   18.87096293791227
C         6.43377986861394   14.50118586551991   23.73359364946437
H         6.77502885940156   15.15510252525083   22.94471237167577
C         5.83125215194261   15.03153579897843   24.86262477161284
H         5.69538407137126   16.09822957229795   24.95518243732000
C         5.24759037542968    7.23953518650859   16.73820154766651
H         4.87404367374715    8.24229044553186   16.87346149573357
C         5.40566839241948   14.18439855514672   25.87264055052502
H         4.93179503040042   14.58925370167646   26.75458245414187
C         5.35830676450581    4.68200659745339   13.99828691344821
C         5.24281980021975   10.72711115215046   22.36556387215053
H         4.63665472698752   11.58516896355119   22.61609887216008
C         6.35141010512407    3.87239805440713   13.44001544046398
H         7.29658621150199    3.75672724797068   13.94503439379067
C         5.08015923291306   10.09771219695731   21.15376171409454
H         4.34125886130598   10.47371216787040   20.46022248275825
C         9.11540881528800    1.08143940234949   11.52527972719725
H         9.89735728981798    0.54983299678257   12.04630828029789
C         7.63954125647243   10.68873149247930   26.56061850270127
H         8.06195007897262   11.66705393749800   26.38379485756638
C         6.14592714707192    7.20078138889575   19.07814876726830
H         6.78965358977443    6.63002343901924   19.73407326406700
C         6.95005728983453    9.13912209492018   22.94294049007114
H         7.69432808234947    8.77567601362789   23.63631436061663
C         5.06006216255420    6.61814132834407   15.52456115010131
H         4.55625077299612    7.14688267810591   14.72880689666468
C         7.46328297733710    8.70723443449668   27.90512272128348
H         7.74731296757529    8.14421096074913   28.78102960385077
C         5.57381593323435   12.81811193433358   25.75681836978970
H         5.23486225065080   12.15755678331414   26.54144904337389
C         7.99653671178809    9.96621086056640   27.68255408852839
H         8.70240001766336   10.38647886837117   28.38355839510962
C         6.23641279443288    4.68929447136434   16.32509752399628
H         6.60518711539949    3.68398004191981   16.17952934705867
C         0.66730477201280    4.75917263931378    9.52112839956897
H        -0.16850565881875    4.89602694668518    8.85177136459327

