78
CSD_code = PUWWUZ | q = 0 | S = 0 | Stoichiometry = C28H46NOSiY | MND = 8
Y        -0.06177342118327    7.55203024426856    6.13310683423927
Si        1.04429342657993    6.82082441705705    9.05629532088232
N        -0.45043595886070    7.00029522984414    8.23545508958265
O        -1.88960030688137    6.07889429415650    5.06424280030804
C         1.85184107410215    5.73121359613238    6.49286790173627
C         2.09631485400239    6.81392313704434    5.55003106833832
C         1.68706241458204    6.30986692281582    4.25588847617768
C         1.18374867073428    5.01934607933093    4.42258200439862
C         1.27147802198247    4.66998662009127    5.79876277582208
C         2.21191268193611    5.75019570459247    7.94301343354912
C         3.21283170418720    7.82793611117880    5.72408875607011
C         1.93852940309072    6.98140764973804    2.93535148536586
C         0.69314614141187    4.16020249187903    3.29583813613877
C         0.90438413338974    3.35600718332784    6.42421437400241
C         1.12581059309278    5.98937737481297   10.78297699214936
C         1.94017484714840    8.52534628442338    9.28164046062768
C        -1.68257301214480    7.35171924659135    8.93464211838982
C        -2.78389792864571    7.72365682092311    7.92168283879068
C        -1.49164375800373    8.55293257829187    9.87526782178763
C        -2.19005952600197    6.14925460177540    9.74910893904680
C        -0.21726351025479   10.85793399897450    6.35515654071680
C        -0.22588749996746    9.72600583874726    5.30366720145454
C        -1.43313082420317    9.74535490941313    4.43529078174198
C        -2.68733605416510   10.19600181336387    4.87064871458746
C        -3.78512256356088   10.18705574024637    4.03028750002858
C        -3.67244952604100    9.74750707219818    2.72212096571849
C        -2.43607110348487    9.31689042746041    2.26238989954252
C        -1.34151938309882    9.31579485958399    3.10062732780456
C        -2.80420758951513    6.33949273365884    3.98563024709859
C        -3.81573075196047    5.18690545975229    3.95335158076397
C        -3.64272775873415    4.54219502714295    5.32792524101257
C        -2.15403700183265    4.76028307587174    5.56299669419476
H         3.22924289704001    6.12664089072271    8.06112919862072
H         2.21751570628742    4.72726023084513    8.31422591220154
H         3.28095997693165    8.17301983892244    6.75534006897794
H         3.08595553632640    8.69564996314773    5.07406616095946
H         4.16776408510982    7.36112213689265    5.46382385365661
H         1.11684849262466    6.80390146243393    2.24064126055247
H         2.84763487970768    6.58513912687045    2.47561624358826
H         2.06849038959469    8.05692125935496    3.05221737417090
H         1.47733844616279    4.03416185816352    2.54788854238968
H        -0.16631863902970    4.61300141587855    2.79462258767944
H         0.40652522668316    3.17088408772702    3.64531786751981
H         0.35685576899052    2.71952236307647    5.73263117435056
H         0.29232395986893    3.50583376761596    7.31429380482145
H         1.80400550102820    2.81596641413048    6.72690486230569
H         2.15723198519424    5.90759748583127   11.11205786042134
H         0.70972205008049    4.98715006813350   10.76849726405855
H         0.59257344436242    6.56061381462115   11.53601012692170
H         3.01061720686733    8.40646517595781    9.42192387735623
H         1.56357124969857    9.06444691488396   10.14550139097069
H         1.78551813359661    9.16255006168505    8.40848437249121
H        -3.70351374808207    7.97909325989375    8.44745094615677
H        -2.99512054522907    6.88322155021383    7.26239658614327
H        -2.48305031164516    8.58966626356441    7.32465336970238
H        -0.82441392517178    8.28756596018111   10.68826526375454
H        -2.44368470883256    8.87101902712884   10.29525275958597
H        -1.04953046282147    9.38300840699123    9.32719071957820
H        -3.15531474265300    6.37007640925374   10.19970701385408
H        -1.48357199373020    5.90715815122130   10.53363533621943
H        -2.29265648313183    5.28094010886942    9.10192349164535
H         0.77399693040908   10.94684458157150    6.80323902572145
H        -0.93356442523561   10.70042404050710    7.16343196663000
H        -0.45600320027644   11.81895441721417    5.88603806597641
H         0.64027034413121    9.91614153121521    4.64360278403911
H        -2.81053655822227   10.56418951019062    5.87912748340462
H        -4.73879941163824   10.53960885281186    4.39849982250554
H        -4.52984141740695    9.75147066435842    2.06582831063732
H        -2.32774926454604    8.99007352806670    1.23735328625218
H        -0.38173170570792    8.98439527502345    2.72229521888124
H        -3.28812786541502    7.30135103600081    4.18445890244513
H        -2.24412862795773    6.42087305272449    3.04809398767270
H        -3.55750027629820    4.47369621198463    3.17055591343446
H        -4.82757815159839    5.54353997869492    3.77771203741962
H        -4.23176921447670    5.07240476121288    6.07743643373628
H        -3.91672230419319    3.49045646764263    5.34095789920389
H        -1.56572109262394    4.03170934942638    4.99471685776214
H        -1.84837362250356    4.73663172246354    6.61123239154339

