93
CSD_code = PUWWAF | q = 0 | S = 0 | Stoichiometry = C41H49OsPSi | MND = 9
Os        8.47992183453232    5.26359428887586   10.00273593004485
P        10.15043069874983    3.63326465967996    9.76393080628804
Si        8.38297785745864    7.90699163699030   12.76724399237191
C         7.65728916112317    6.47072072280610   11.79506910063276
C         7.77821711429737    5.11321028622165   12.22046648874623
C         6.89145019730120    4.31952484247631   11.46763138596503
C         6.22738695566747    5.16534160855877   10.54856333992639
C         6.69369735850152    6.48374613075964   10.74689642522199
C        10.02155205704050    7.28962040589984   13.50865866962953
C        11.14498843880026    7.08130000954479   12.71267876751194
C        12.30891909488115    6.55183935392338   13.24120070297188
C        12.37166242441839    6.21771693949382   14.58358820589549
C        11.26681434785162    6.42444094264815   15.39211005932830
C        10.10665517865842    6.95553338715375   14.85690139989451
C         7.19053492084698    8.29423190620088   14.19373103535981
C         7.25067072929333    9.53186130582043   14.82658239418188
C         6.41455633937805    9.83509675567660   15.88518083857618
C         5.49613535938701    8.89927891186881   16.33167110090224
C         5.42021289964791    7.66348830448147   15.71213908538722
C         6.26100077811875    7.36798917742111   14.65400040106489
C         8.59463801202556    9.50452448920326   11.77407318987524
C         7.49257027994361   10.07349152580196   11.14274373977970
C         7.60932665756193   11.24022671483739   10.41135969018549
C         8.83871835618478   11.86852095948195   10.30431802087863
C         9.94275104908925   11.32693529768108   10.94017243960678
C         9.81860722454184   10.15705286878781   11.66804121366704
C         8.70456330219024    6.74100981021649    8.50747345618368
C         9.21480737466724    8.01551927483212    8.70865781031385
C         9.09778019186541    9.00244709945407    7.73917352340302
C         8.46989705202500    8.73118457984380    6.53695443732936
C         7.95766807719985    7.46873747427855    6.30349152767581
C         8.06938816390399    6.48172680307607    7.27672256915436
C         7.54886516216548    5.12590162317419    7.16863130916891
C         7.76810589864159    4.37673040688425    8.25399977461382
C         6.84058277932864    4.65719402487859    5.92991027229262
C        11.50485252491271    4.06099794402926    8.53868033942191
C        12.07645932723347    5.44580996824475    8.82531233572791
C        10.98093012499008    4.03427887650214    7.10647139718303
C         9.69728513834400    1.90451477111223    9.16263916167578
C         8.50747774478534    1.31025742608109    9.91180688981077
C        11.12742241451020    3.45319123608943   11.37081518050531
C        10.37229657072718    2.59059923969528   12.37974703410489
C        10.83085840415455    0.88576619130749    9.09853994509082
C        12.58015322004628    2.99128383223522   11.28228316318696
H         9.81555905297374    5.95575036952324   10.31801816436705
H         8.33709933214964    4.79730620611955   13.09083241267819
H         6.64806206121533    3.28325174665499   11.65749684180570
H         5.40546956733656    4.87862986957480    9.90696418141848
H         6.28726950572421    7.36799266712911   10.27711483037730
H        11.10370019964097    7.32667239661934   11.66109497494233
H        13.16951501692965    6.39724331503488   12.60507697136708
H        13.27797826522582    5.79956169461791   14.99821364808234
H        11.30904328336984    6.16882405734590   16.44168119230908
H         9.24781819474668    7.11349589241390   15.49472477359925
H         7.96402046995011   10.26602751652107   14.47863864331847
H         6.47708979794119   10.80207973031395   16.36410422104127
H         4.84090017288676    9.13314343729572   17.15857275414320
H         4.70392271183496    6.92986242303699   16.05511960181963
H         6.19385337672104    6.40042572190632   14.17586269104715
H         6.52587253267090    9.59834174785886   11.23367877729114
H         6.74195482664650   11.66172607896200    9.92324206820286
H         8.93446639830625   12.77941596583361    9.73070404536909
H        10.90370185380073   11.81709012423348   10.86722326272962
H        10.68588868396392    9.74408431358057   12.16385997168898
H         9.71546579886971    8.26989313985825    9.63231112626277
H         9.50069794504935    9.98651677003769    7.93344918301947
H         8.38014999295064    9.50130750940564    5.78365225441256
H         7.46257308609344    7.25169057951408    5.36768523551790
H         7.38627103320260    3.35415864679597    8.25596961353736
H         7.50193159599831    4.73032442851250    5.06685420193040
H         5.96214850136010    5.27259087947313    5.73745621982231
H         6.52354849596619    3.62202864368351    6.03872118170434
H        12.29708047942522    3.31398902416501    8.65362648929714
H        12.96688434601644    5.61037987439145    8.22012750653591
H        12.34116132912188    5.56709775572353    9.87201618846388
H        11.33316142049982    6.19763184499751    8.56900655494323
H        10.08152228436575    4.64350243020957    7.04634335385382
H        10.75679226573277    3.02613043329454    6.76874164801981
H        11.73018237746333    4.45237180510376    6.43692696265512
H         9.36512109626950    2.11690287186474    8.13968644169952
H         8.06195093044837    0.50864971768334    9.32315712274575
H         7.74739298973658    2.06669206406450   10.08368817895291
H         8.80416887166310    0.89357051109036   10.86997056496655
H        11.12453550317302    4.48384241263017   11.74985016175532
H        10.54019481869640    1.53254023070410   12.19231675982421
H         9.30467722333688    2.78821928473145   12.33600845177353
H        10.71872683661405    2.80999713020516   13.38926441907099
H        11.14507343690769    0.58435860541151   10.09412917199387
H        11.69073825634124    1.26537982272057    8.55485524083193
H        10.47651183118248   -0.00610774838260    8.58185148488984
H        12.99366122264838    2.96815371725051   12.29041228460831
H        13.18707319505340    3.67023510923965   10.69237933802651
H        12.66593873512248    1.99313321688879   10.86402008100370

