33
CSD_code = PUXDUH | q = 0 | S = 0 | Stoichiometry = C12H10AgF3O2S5 | MND = 4
Ag        6.21088607673887    0.75067182690571   16.35008506280736
S         8.27113352325114   -0.74370386905186   15.07065347905871
S         7.79115225387141   -0.87218100147528   18.26960283373317
S         4.55400999614165   -1.37730222503734   17.51309485262355
S         3.36255276399157    1.29294395812613   15.84570541732548
S         5.58976710607945    0.57499851351611   13.59917899705694
F         6.98778641876990    4.48353214200895   19.55492546080744
F         6.49798021608196    2.80440030821601   20.81037650422558
F         4.92673947334097    3.97358512026454   19.91262943980425
O         6.86561234444426    2.76148298087427   17.50489263224098
O         5.38427750977716    1.50901387948471   18.57296488459553
C         7.93363347247018   -2.24850531716953   15.92351611642734
C         7.66799267771227   -2.28591438324831   17.22635600178643
C         6.51911686980148   -1.23902563021835   19.43790979716418
C         5.24610369998265   -1.44312907689243   19.13529884545537
C         3.14306546495441   -0.42558553155561   17.97981507705748
C         2.67368893006712    0.62829846852218   17.32974554971326
C         3.24783753175120   -0.11664418677527   14.79649875277331
C         4.12361500496738   -0.37465914369901   13.82923127058531
C         6.55562330730626   -0.75077714040701   12.92352155477927
C         7.61986829825590   -1.27543760097998   13.50839470088485
C         6.13587575437666    2.48549504483332   18.45860766487767
C         6.14666496139974    3.45334889094606   19.68259145694915
H         7.93538098230587   -3.13359237183573   15.30790799911437
H         7.43732665141026   -3.20980560454807   17.73243317309716
H         6.85173419394855   -1.21645311329554   20.46379610591758
H         4.51520114467793   -1.63408352971354   19.90704965143637
H         2.68591545152756   -0.75863260100975   18.89994118597864
H         1.84974625447722    1.20381867816123   17.72142382290160
H         2.36786303157524   -0.72297222410489   14.94117065430554
H         3.99971869777997   -1.19627646132767   13.14221854420311
H         6.19379767074564   -1.11662269173347   11.97322132874323
H         8.16773226601575   -2.09068610777482   13.05774118156809

