75
CSD_code = PUXMEB | q = 0 | S = 0 | Stoichiometry = C31H31BN6OPRhS3 | MND = 4
Rh       12.73598734048020    8.05681660888427   11.79943780449717
P        12.70306107406399    9.55313108000586   13.50073434211284
S        13.19316451730334    6.13740204284438   10.41971045383821
S        11.20077649952809    6.76654450979991   13.14962212783859
S         8.54834818896010   10.46969921051279   10.24269367615598
O        14.87192595311969    9.54784966319367   10.35893258070392
B        10.10032100725718    7.59471321685476   10.22961368691480
H        11.09577419907676    8.25453485551778   10.51691177848907
N        10.47988519229713    6.13099563427128    9.91577317952795
N        11.51168958626305    4.20380263079179    9.72649201543735
N         9.17924123468208    7.50716139836570   11.46347988854513
N         8.57784937504807    7.12544233852647   13.53652558646415
N         9.38475303322942    8.19432994304054    9.02379579375305
N         8.43842260423491    9.67338211262206    7.69330053225691
C        14.04719787599534    8.97771444423006   10.91983162339076
C        11.67523536220831    5.51651788223782   10.02995891779425
C        10.18916965283703    3.98843394947706    9.43545893008740
H         9.81547144592925    3.02102802654737    9.17118198300006
C         9.55806639483894    5.17632735293901    9.56335444311568
H         8.52462757371421    5.42525067952797    9.43592315868318
C        12.56269257558298    3.22959816334092    9.73286908180462
H        13.13001279226263    3.26765068867049    8.80010354866894
H        12.13663406659838    2.23644709519126    9.86037191637994
H        13.24455480087291    3.45441812083403   10.55403901400250
C         9.63024791181856    7.17772829495128   12.68732847826599
C         7.44524932047603    7.43738272790685   12.82707540121037
H         6.48116499734959    7.47428932094296   13.28919227861262
C         7.82451070400487    7.66579900358107   11.54885091761060
H         7.23659619746912    7.94447568299287   10.70017439001171
C         8.64248813374341    6.78776853537722   14.92714528079335
H         8.28342403473707    5.76915787008685   15.09336976050205
H         8.03687016180362    7.48478018002422   15.50556493850526
H         9.68229906726955    6.85296918566765   15.24684725410953
C         8.80703298717918    9.42417500050054    8.98313590421655
C         8.81300918703425    8.60228691543201    6.92097500044047
H         8.63473058833936    8.57570659309353    5.86590436757194
C         9.39637510991701    7.70110314629323    7.73904634185841
H         9.82950414221425    6.75204974203721    7.50117305422566
C         7.80154699173277   10.87261442775312    7.23772061392475
H         7.65885353396833   11.51780027377719    8.10592157741631
H         6.83230475033616   10.64637776174819    6.78834754242818
H         8.42692916586631   11.38529585940880    6.50433648782894
C        13.37210224109952   11.23116559140678   13.25780747157512
C        12.58476971081410   12.37162421571881   13.16623729980281
H        11.51267896527429   12.30281435125426   13.28188476880780
C        13.17607392838730   13.60054708171388   12.92618713185378
H        12.55930768913501   14.48481840427775   12.85633036351899
C        14.54811345264049   13.69858249811591   12.77272934464029
H        15.00398956379728   14.65939059146917   12.58357407758003
C        15.33713030425266   12.56133367332356   12.85694545894289
H        16.40770720596451   12.63402229314066   12.73287431012704
C        14.75231534465699   11.33344930627381   13.09366575191022
H        15.35863494770468   10.43831984908271   13.15628105150299
C        13.73464553948723    8.98804258262857   14.89094115280324
C        14.04721697577734    9.82170055944101   15.96138111574807
H        13.67215773410247   10.83657672440393   15.97872900864003
C        14.84520779606537    9.35172686004567   16.98781091559087
H        15.08923920487545    9.99819911316560   17.81864719876893
C        15.33594768231960    8.05529838312519   16.95094617878610
H        15.96033463969734    7.69441195106134   17.75535687759741
C        15.03544552158204    7.22718214199401   15.88191214778241
H        15.42664169384616    6.22093600267695   15.84998132318644
C        14.23931078879768    7.69361260124878   14.85125083324839
H        14.00326086553870    7.06289237884357   13.99450995662099
C        11.07513047417308    9.87412690933721   14.25293300772616
C        10.06486453674647   10.22802240587278   13.36154249186217
H        10.28708210797572   10.30209188588330   12.30267790874102
C         8.78273853391334   10.46957709119861   13.81492998623569
H         8.01527433799511   10.74422607161371   13.10711307116595
C         8.49761427409670   10.34809360505486   15.16589823169725
H         7.49652513627415   10.53790645809779   15.52686722205753
C         9.49420393747780    9.97546978363747   16.05339974474746
H         9.26922852614466    9.86863782287501   17.10557668338193
C        10.78090759960882    9.73204126024753   15.60259572708960
H        11.54839940813753    9.42580738196914   16.29895653326023

