65
CSD_code = PUXQEG | q = 0 | S = 0 | Stoichiometry = C24H32N4NiO4 | MND = 6
Ni       32.13453692333086    4.62135307012769    4.29372751613166
N        32.74315694646575    3.19995610780643    5.73546856668088
O        30.85508450679819    3.43664103003614    3.75900790854925
N        33.96561171884455    3.56448139783280    3.14254250598217
H        33.59763686008979    2.63078857485600    2.95982264478569
O        35.62221263469849    6.43904553496804    6.02395571016731
O        28.52160249191487    2.81327003846583    2.82238357479131
N        30.72698982628372    6.19066334622766    4.46607246139091
O        33.42075719204351    5.80487949153009    4.81412681964916
C        31.99105516455320    2.23939884281757    6.12596816611165
H        32.36365150238852    1.55173320298713    6.89777994561031
C        30.69033231127421    1.93497504450277    5.62326185273887
C        29.91272140028551    0.95499260285832    6.26549374214442
H        30.30213277519078    0.49161490442768    7.16144653442301
C        28.68646145473821    0.59515948365648    5.78191078816310
H        28.09104364920464   -0.15255898369294    6.28288996422988
C        28.18856659409433    1.20010144686812    4.61973164097173
H        27.21596391578088    0.90256437772231    4.25829520619258
C        28.91992574752317    2.15476500606612    3.96386954744475
C        27.28227682187160    2.47343589677018    2.26260784622328
H        27.24700521162498    1.41907968995649    1.96637343429873
H        27.17466747559715    3.09881462551207    1.37688380693994
H        26.45593916557645    2.68033229509776    2.95216005179544
C        30.21438644156548    2.57019031163266    4.44127930818605
C        34.10594821229981    3.22365836029814    6.20697989957277
H        34.19852312152474    2.66008194910777    7.14932678783842
H        34.41302643013095    4.25785949166043    6.36628083422525
C        35.03853622300878    2.59459809561980    5.16121621825527
H        34.65445287271073    1.60714697778979    4.88720099493712
H        36.02276791675372    2.46177828606983    5.61535071643290
C        35.19976822725455    3.45399442863239    3.91062396485969
H        35.49098400932972    4.46362541530777    4.21020094787386
H        36.00682827177619    3.02251387306014    3.28880568589890
C        34.17152270489647    4.24372898868324    1.87459513468514
H        34.83296448562250    3.67080262604650    1.19951570872327
H        34.65006712507262    5.20398116702286    2.08724753362881
C        32.83018303768591    4.48875904544167    1.18955512620012
H        33.00043201639157    4.90530043503515    0.18012345767589
H        32.29993345266132    3.53824246580698    1.08160430439803
N        32.00573266962994    5.36176560964057    2.00793092145090
H        32.44335405572895    6.28218853704042    2.05145488097649
C        30.65518898071250    5.49524809663668    1.47530724107874
H        30.16679452011691    4.52267198390620    1.57275339830312
H        30.68575525024474    5.77037011471105    0.40408636299095
C        29.83001932784655    6.53960895671903    2.22149107005622
H        28.88249733823639    6.66917948573042    1.69422650343028
H        30.35481232439947    7.49996699455603    2.21864452879156
C        29.52390595079330    6.13924474143198    3.67238741223995
H        28.76425356870334    6.82711254584878    4.07734655102128
H        29.13499946539298    5.12034294722596    3.67540723825504
C        30.94595371584501    7.24873587022053    5.15396090977665
H        30.15995238292025    8.01383260189155    5.21858837197002
C        32.15596498094164    7.56635292698479    5.84131179674415
C        33.33321063498087    6.80092353117055    5.60609126983994
C        34.52642568131236    7.22829414376136    6.29139352792532
C        36.83910529814258    6.76918022189507    6.63616930036912
H        37.18200487346171    7.76793638538583    6.34397675752750
H        37.55739230230924    6.02739059030612    6.28865992096158
H        36.76954736430417    6.71903641005610    7.72870923651538
C        34.52151733744643    8.31458056776973    7.12592671753470
H        35.41920190921866    8.62097106906089    7.64112340224028
C        33.34481131241473    9.04684262952629    7.33479756518471
H        33.36476683966510    9.89762673957131    7.99849937441947
C        32.19181923216173    8.67907947620851    6.70033909400504
H        31.28085584421179    9.23976787812171    6.85812978758625

