27
CSD_code = PUXQUU | q = 0 | S = 0 | Stoichiometry = C9H13Cl2NPdSi | MND = 5
Pd        9.75745266475422    6.85345482509514    6.51576299710634
Cl        9.64503825941749    6.99689395380785    8.73487070492440
Cl       10.31899035052036    9.01022047769232    6.40255957552774
Si       11.45688234663977    5.03183269826690    5.04072853543722
N         9.27852546987419    4.87988508685898    6.68044381054480
C         8.29514871920386    4.38275811991169    7.41975947069938
C         8.06903436887306    3.01866302448031    7.51046969573450
C         8.89869265980675    2.15670130718898    6.81071668024727
C         9.92236322319131    2.69401862255943    6.04543867017242
C        10.09386971882068    4.06963833356781    5.99490117338458
C        12.14063260872842    3.97135727645287    3.61976695594855
C        12.75070743561477    5.58444508075424    6.33985348262301
C        10.55142346997358    6.60777162203171    4.48710127620023
C         9.19018728905807    6.72379088572748    4.39644881218234
H        11.35304570711588    3.59229367750987    2.97679981543672
H        12.69725742424448    3.12449083681829    4.00503922159207
H        12.81737182183140    4.55346637671167    3.00505819341815
H        10.59125132092503    2.05756674019734    5.48829182035696
H         8.75193070383401    1.08822694759917    6.86278641663030
H         7.26127627256693    2.64614522613530    8.11964014682738
H         7.68385930933682    5.09786155114486    7.95822385148614
H        11.14500151794270    7.48656875516816    4.24220423341469
H         8.55025458370032    5.84423498999085    4.34209383800767
H         8.74711761740846    7.64484882061377    4.02699658739725
H        13.17497614180618    4.74635735223208    6.88536739549474
H        13.57009639622192    6.11920801326269    5.86841158072068
H        12.28941259859060    6.26499939821981    7.07226505848342

