47
CSD_code = PUXRIK | q = 0 | S = 0 | Stoichiometry = C15H26Cl2FeN2Si | MND = 4
Fe        5.58631875702492    6.23259744965538    0.27545022859328
Cl        6.62656591892929    7.32981242997948    1.61524645002702
Cl        5.03824099623298    7.24173534818649   -1.45390353047362
Si        3.08272931962878    4.39454909095340    0.47509759196663
N         7.08575307717847    5.35032151508835   -0.54957029591444
N         4.75828749086994    4.65078290149215   -0.04269923472375
C         8.24599463971445    5.88398925149450   -0.93229472862107
H         8.42641986559999    6.90067963346520   -0.61241310616894
C         9.18550354497584    5.19292349041744   -1.66309161310254
H        10.11963324182764    5.66310177256730   -1.92195684796837
C         8.91532540776435    3.87277187735611   -2.04547787595096
H         9.64260014979181    3.31226954687339   -2.61252555302456
C         7.71026897623266    3.31768185302375   -1.70315392597927
H         7.43760220361580    2.31799490381117   -2.00238367148049
C         6.78700088180949    4.07761326727567   -0.96097042976055
C         5.48920164638176    3.69122717515397   -0.58568926506490
H         5.11453119772909    2.68849601721914   -0.72419829505238
C         1.94791569081561    4.27215529118843   -1.07738008286135
H         0.91841237301466    4.12557288567081   -0.73227887855701
C         2.30844569591670    3.08184549899418   -1.96574545014749
H         1.62737521894101    3.02802054783553   -2.81347499876935
H         2.24349571120985    2.14282099581966   -1.42153051337317
H         3.31822707689777    3.19456358044450   -2.35311348604192
C         1.98706992971299    5.55087632839630   -1.91386827527323
H         1.31959394125333    5.46083772183088   -2.76955608364099
H         2.99206448646475    5.73859865043318   -2.27943266736967
H         1.68051381765130    6.41653630920030   -1.33464292003297
C         2.74384909900081    5.99020329647851    1.49005822964785
H         3.16783175427175    6.82341485560371    0.90423076496733
C         1.25577443008813    6.26930697489872    1.68412295627950
H         1.11064263386927    7.20984455674535    2.21364905994237
H         0.79240385939649    5.47812294036363    2.26899246286514
H         0.73769032208270    6.33337275895137    0.73201136088259
C         3.44225099210221    5.99273642754867    2.85089933969097
H         3.35994484540119    6.97321817846925    3.31782926129621
H         4.50176251611044    5.75224264319968    2.75098425390535
H         2.98209314625755    5.26727572387535    3.51798280241982
C         3.04554664448883    2.72706982853974    1.44554184970884
H         3.15393005003557    1.92779868306163    0.70441001463718
C         4.19677506153000    2.56913782212819    2.43867438838545
H         4.21457457840813    1.55456644112887    2.83489506975917
H         4.08603186337654    3.25245142597343    3.27494060636879
H         5.15399303938363    2.76660211393155    1.96118945722842
C         1.70809294490277    2.50700257192958    2.14899423263050
H         1.67718352226918    1.52028713704569    2.60867023961901
H         0.88281518819362    2.58177849377769    1.44590285459631
H         1.55952225164490    3.24559179251095    2.93217825393575

