46
CSD_code = PUXXUB | q = 0 | S = 0 | Stoichiometry = C23H17ClNNbO3 | MND = 10
Nb       18.84549533026358    0.59322169169198    1.26282023122170
Cl       18.81480401220649    2.24969673053520   -0.47630588557479
O        17.34625893832846   -0.10738815507319    0.30078081545501
O        19.46168928925347    2.06218111337868    2.30629080820583
O        18.08784643335246   -0.21615456888421    2.91903276753914
N        16.86317346845739    1.91354758873333    1.87486252263364
C        21.05458086204127    0.12623508911368    0.06487846261871
C        20.14521079455747   -0.90758839763162   -0.26324326827890
C        19.86599709386251   -1.63032780367319    0.91587469677023
C        20.60761645074385   -1.04142403178576    1.97130901509146
C        21.34544795955320    0.03581654146683    1.44085914892514
C        16.31496855133590    0.63010638048950   -0.06046782668730
C        15.53600876594513    0.33759671318262   -1.17916167221357
C        14.51406300963808    1.19170472970635   -1.55356305864420
C        14.26344866071733    2.34111407415066   -0.82878425744661
C        15.01810675862647    2.64134657667314    0.29865040734249
C        16.03698739468440    1.79753590981747    0.69245645448743
C        17.40246689629791    3.19117464960114    2.28495450652557
C        16.67484896214545    4.33313708842256    2.56764849951765
C        17.31896643411716    5.48697711090839    2.99089743679128
C        18.69156496700509    5.49779985285741    3.16159684435761
C        19.43134036520874    4.35351527269434    2.93401744424977
C        18.80102811755105    3.18154016743861    2.50770074410346
C        16.23724991112211    1.21955203127089    2.98786995680582
C        15.01964337291488    1.58103586813609    3.53161369288788
C        14.50317136977031    0.86579885447518    4.60133283614701
C        15.20681262645917   -0.20957696366771    5.11772346817318
C        16.41751201958338   -0.58971168058616    4.57217015135626
C        16.95566683441990    0.11544978047594    3.48837578835658
H        21.52400554288996    0.79906610557571   -0.64066433706924
H        19.81587191755622   -1.16550790038030   -1.26243490559062
H        19.29637530895347   -2.54852662727937    0.98064131997880
H        20.68120127494891   -1.42746804177521    2.97861055665718
H        22.07231035761325    0.63210492227268    1.97652860341123
H        15.76865743076136   -0.54703530927682   -1.75268010759077
H        13.92119674334778    0.96191652844073   -2.42573406995097
H        13.47736405686941    3.01477325394129   -1.13239229232802
H        14.80937970715263    3.55206165189352    0.83436381335172
H        15.60159488488987    4.34700324622428    2.47230599413411
H        16.73904164379500    6.37440159570028    3.19124056453228
H        19.18908494420917    6.39932905308232    3.48539902575112
H        20.50163438327493    4.33812515472259    3.07478299777652
H        14.46489829132444    2.40987246020240    3.11989665902173
H        13.55278751160207    1.14932049428438    5.02541767127002
H        14.80371894230809   -0.76406822814300    5.95187799123030
H        16.96580140834033   -1.43488057340349    4.95934978469722

