57
CSD_code = PUXYIS | q = 0 | S = 0 | Stoichiometry = C26H27BrN2Pd | MND = 4
Pd        5.08769151379911    6.04952352513518    0.76196206884239
Br        4.77144177646548    7.34338833579615    2.77364553829439
N         6.37973750787591    7.24321077165282   -0.29077267093197
N         3.88998015700979    4.42703678918986    1.13039036630381
C         5.31181694599664    5.03887651896878   -0.84818225516642
C         6.14594167680412    5.54213598420788   -1.85106751541208
C         6.29489850582608    4.80626497040920   -3.02595261064870
H         6.93041642650210    5.15708764883813   -3.82675793805546
C         5.61150002210413    3.60492357183865   -3.16478564821826
H         5.73003208557945    3.03947208275664   -4.07784410179096
C         4.77904704025017    3.10720869877828   -2.17039570677393
H         4.26390444572755    2.16923298224958   -2.32231913092243
C         4.62155791111397    3.83120652987184   -0.98924773120964
C         6.72823900712404    6.81781308208857   -1.46240622748973
C         7.65513854108712    7.56777610782550   -2.36447108394086
H         7.96904468133016    8.50577722632031   -1.91122410961706
H         7.16034154478552    7.77433950788260   -3.31291387159279
H         8.53444998720139    6.95955584723833   -2.57511003873680
C         6.80698798485096    8.45684837019805    0.26704422302147
C         6.02435042576721    9.59956311927354    0.07723365746181
C         6.43208523988313   10.78139158257141    0.67335499046047
H         5.83889294895283   11.67371845907527    0.53917945645221
C         7.57402675833936   10.81836967533220    1.45476600797365
H         7.88034393980118   11.74665169773215    1.91260024339448
C         8.29814485597941    9.66287165592880    1.69179820187270
H         9.15480711383569    9.68612052931025    2.34881034427571
C         7.92010994182472    8.46302414992988    1.11190508726318
C         4.74514192222218    9.47414084998120   -0.69376451717674
H         4.93274222533636    9.31789368117118   -1.75729410858361
H         4.13253446289834   10.36310817257126   -0.57286139013792
H         4.18167157313167    8.60238125690556   -0.32007202965255
C         8.60383416048531    7.16281364429838    1.40867281341451
H         7.84436401969818    6.40572749867009    1.66590744075909
H         9.28853951006564    7.26851478669367    2.24550527346280
H         9.15892785654775    6.79682802869715    0.54344396894758
C         3.82773756728742    3.53568236253340    0.19398668282308
C         3.01550341136150    2.28537787147089    0.30505280147788
H         3.66087234021657    1.41509108053656    0.19046821477892
H         2.27485750046082    2.25606744483176   -0.49370832481951
H         2.50823012672132    2.23191551714501    1.26609887892320
C         3.22873477141191    4.32353629604525    2.36280030234143
C         1.95658842843911    4.88333781524879    2.50701433699248
C         1.34378129097497    4.81051373717562    3.74722067121906
H         0.36140208170910    5.23952779242192    3.87756834152532
C         1.98924387734545    4.21710845017702    4.81817308523113
H         1.49912124753139    4.16664984908848    5.77857653324692
C         3.27756644091658    3.73095115028727    4.67740233355382
H         3.79770293829348    3.32099183365540    5.53032372296838
C         3.92130483369579    3.78683131742033    3.45234073554216
C         1.35008323606149    5.60067935723393    1.33936275809470
H         2.09867289571049    6.28285577840095    0.90654974270739
H         0.48642301166495    6.18205081054136    1.64967050739555
H         1.04284602100571    4.90403463769802    0.55777494575841
C         5.34793771016991    3.36856692000758    3.26130380565005
H         5.42150137569686    2.46503033587623    2.65372847980537
H         5.82914015517788    3.18775634926739    4.21843311650766
H         5.89436402194352    4.17234595354755    2.73628133213312

