138
CSD_code = PUXZOX | q = 0 | S = 0 | Stoichiometry = C64H69MoNO3 | MND = 5
Mo        5.48316530447973    7.28220608535240   19.09235698458581
N         5.21004426267503    8.49081519172131   20.32139740030800
O         4.97791373619165    6.88281957477787   17.39824396010624
O         4.60359132674292    5.68319722279103   19.78717582686892
O         6.36034619655801    9.24938883747044   17.80221518642673
C         7.30990586243670    6.76238154918186   19.56066989187320
C         8.04888770157054    5.53601772701626   19.09364518919946
C         9.26352015009571    5.93436783268508   18.23693872211314
C         7.14776931669430    4.62768022151379   18.24659088540342
C         8.45748666145248    4.76952692667541   20.34855022796982
C         9.71423107840623    4.20743693864673   20.53085054557674
C        10.02634164860066    3.53162134792808   21.69962706593618
C         9.09044904367583    3.41140959701597   22.70975555385223
C         7.83317776241443    3.96686836861565   22.53861341918914
C         7.51901365544505    4.63252111796010   21.36936154693398
C         4.32215229649355    5.95629162976800   16.71486809988493
C         4.73178772307631    5.61728057433207   15.39182507335564
C         4.11810771899585    4.58482085271652   14.73500493541760
C         3.10039613697175    3.82744909857652   15.34457637254907
C         2.52011529226627    2.71917816522632   14.69536577274176
C         1.53759851251748    1.98802537672199   15.30037930581032
C         1.10680760903847    2.33288541234302   16.58968689751126
C         1.64043370501078    3.41083523003584   17.23868649456776
C         2.63933849288107    4.20519851887166   16.63311465209025
C         3.21695021764833    5.33004765613217   17.28521593812555
C         2.58840588213063    5.81210836609648   18.54117236000680
C         3.28167472875074    5.83013343868866   19.74957968118776
C         2.56055739869601    5.91716167707960   20.98441601336781
C         1.21405976452410    6.15675004627194   20.96251900019286
C         0.51782649397868    6.34712356531065   19.75040683464654
C        -0.84853225533933    6.68898897792213   19.72890896399812
C        -1.51004489688446    6.86705087237290   18.54546973717505
C        -0.82488825774841    6.71225863687845   17.33245932804582
C         0.49716268848201    6.36164329546135   17.32068240227227
C         1.20583598569519    6.15792068807407   18.52350292425376
C         5.76052221190021    6.43032723364681   14.70058304434995
C         6.99947859376361    5.89490992541952   14.34362952195758
C         7.91476689119303    6.69470960270318   13.67002525644670
C         7.61724403436496    7.99821889688984   13.30724727407593
C         6.36823268363616    8.50449482197664   13.63920749146581
C         5.44285025234174    7.74654341782858   14.33968685568144
C         7.38180556797220    4.47550709220972   14.64861898800959
C         8.60839339774217    8.82593065050100   12.54619361752158
C         4.11112516231093    8.33471449216415   14.69782940807885
C         3.26918033946265    5.63060598821590   22.25348629275975
C         3.36164546107200    6.57987863954341   23.27317769445296
C         4.01375692260344    6.24765908069429   24.45266787590173
C         4.56012606731412    4.99108331545343   24.65480847405522
C         4.42706865851543    4.04760495564779   23.64703723931878
C         3.79509239270043    4.34740812059721   22.45077294710612
C         3.65256785059345    3.28163727956400   21.40464773645076
C         2.75700701908460    7.94588031267203   23.14616653550448
C         5.28618350208689    4.66836519731059   25.92630927052280
C         4.79403135128403    9.58654963505898   20.97661105304164
C         5.60791261627673   10.16511062767618   21.98401774913003
C         5.18205658775761   11.31173823484180   22.62531854960552
C         3.98218729012569   11.91535338130530   22.28630902680230
C         3.18036609581447   11.35489647337883   21.30849367271369
C         3.55197165692109   10.19339093783789   20.65408721311156
C         6.91423991773688    9.47902605777766   22.30958082121047
C         6.64628488602737    8.23058420573349   23.15717097942302
C         7.93440060235763   10.38278398851749   22.99846384221404
C         2.65644404144496    9.54750521644190   19.61949160968533
C         3.00761053653282   10.02407497482734   18.20522120395344
C         1.16805695939452    9.78052597163138   19.88057822058793
C         6.69032949352529   10.47125266617144   18.45126545839232
C         7.26481949997703   11.36881336576781   17.34409403220255
C         7.77766972063997   10.36185774898966   16.29994849792304
C         7.46074339080073    9.00376941568425   16.93989394406143
H         7.93679690010572    7.28091257289727   20.29221880360473
H         9.95688174721791    6.54929827703181   18.80743574054318
H         8.92428208634744    6.49841673706966   17.36932998789079
H         9.78943272524792    5.05369353180924   17.87370671109696
H         6.84650964254564    5.15441419727323   17.34107018663694
H         6.26130197851824    4.33647782908571   18.81019657451351
H         7.68346570105687    3.72287001625820   17.95955232921106
H        10.47305570118087    4.28799640467322   19.76825242948480
H        11.01109783097968    3.10189982709627   21.81917362466418
H         9.33942375655210    2.89067578397755   23.62316337210013
H         7.09180854288700    3.88822984171329   23.31875295855104
H         6.53574528670477    5.07048540942524   21.24783099911678
H         4.41842368861995    4.34525421716562   13.72431078264472
H         2.87739841820949    2.45557148600527   13.70960984440004
H         1.09755878842983    1.13863323439897   14.79882485651327
H         0.34818233562678    1.73455534318569   17.07290201614991
H         1.30906370024056    3.65275882075674   18.23701620655511
H         0.66315562723092    6.19524050358664   21.89149756301197
H        -1.36100878342647    6.82045635977772   20.67140258660971
H        -2.55640311151344    7.13500703849356   18.53700216878772
H        -1.34903972998464    6.87474363545594   16.40169683515861
H         1.01758487044590    6.25393314454872   16.38002723497120
H         8.87785326450276    6.27814853939264   13.40925365043201
H         6.10502192888010    9.50920385411592   13.33667852680584
H         6.63287526111102    3.97597256329986   15.25626687960204
H         8.33820654518764    4.44529123753197   15.16890350622083
H         7.49448591267273    3.91879327535955   13.71802456497191
H         8.40136950924425    9.88743028106282   12.66098176687887
H         8.55825617691130    8.58438621887833   11.48402716513218
H         9.62192456641392    8.62469864368850   12.88671991760385
H         3.95055907565492    9.27456160042084   14.17413400339020
H         4.06508438790388    8.52943235928417   15.77119238585909
H         3.30328809768136    7.64795648447246   14.44694029706349
H         4.08860421431030    6.99048686876879   25.23463474791386
H         4.81317281029605    3.04848634214554   23.79866374316774
H         3.90071115185918    2.30579769517511   21.81599489101811
H         4.32477421796161    3.48119026122003   20.57003658116273
H         2.63525711230075    3.25268072689537   21.01536766274543
H         3.41257525559506    8.69662009116918   23.58211088779747
H         1.80451224255492    7.98322848576993   23.67722341789714
H         2.58219473068374    8.20407736053798   22.10767343493563
H         4.79723440597537    5.13274436181214   26.78027242527034
H         6.30675218723793    5.05039722218284   25.87672374786530
H         5.33220100673908    3.59373043831203   26.08815728033121
H         5.78873262553482   11.75508733807203   23.39957345004632
H         3.67012550441011   12.81918679692428   22.78851258954891
H         2.24648064315027   11.83555776385678   21.06066263989157
H         7.33663511433912    9.14014186337993   21.35458648092537
H         7.57674558369435    7.70733121517791   23.36755234065554
H         5.98541419779260    7.55315416186990   22.61839562596443
H         6.18070852780330    8.50696311858843   24.10078625289785
H         8.89485170995975    9.87403120462560   23.05253548935461
H         7.62517126407007   10.61778210551493   24.01422145318035
H         8.06695694709780   11.31205371679895   22.44785284312768
H         2.84566568595946    8.46269679907203   19.65624194837729
H         4.01110671458979    9.69356665670074   17.93208580258561
H         2.96350443876814   11.11110863502343   18.14825298721810
H         2.29651347770894    9.61152184239413   17.49025462145037
H         0.91378631370104    9.55584587459639   20.91363310504650
H         0.57566801901495    9.13588562240761   19.23461972186425
H         0.89182808051096   10.81126603653600   19.66928408964398
H         7.44504624397897   10.27761848255318   19.22655155872170
H         5.79335171222610   10.87336864146089   18.92167116083860
H         6.48613515135841   12.00247813956038   16.92307840305627
H         8.05601819326603   12.00757470609492   17.72931659312463
H         7.24204016697100   10.46798407943993   15.35888172007781
H         8.84220152941774   10.46653393408159   16.10455556388638
H         7.16827369602799    8.23926424548649   16.21860388051770
H         8.31474609380651    8.65473535364105   17.53915979036448

