39
CSD_code = PUYBUI | q = 0 | S = 0 | Stoichiometry = C18H13I3N3ORh | MND = 6
I         1.25699880770553    6.83629667871775    4.73060517779975
I        -0.41824557529846    2.14131803049612    2.71043809364784
Rh        0.55560496886572    4.51467076363394    3.54911926027669
I         2.94587758095992    4.17181264304928    2.36813044360975
C        -1.04709889069736    3.01836592614188    8.31048785150008
H        -1.03006386097346    2.58588164633529    9.29899051753994
C         0.10850130135149    3.51428358286693    6.24014026768272
C         0.12855311581537    2.92261321572318    7.51228287630505
C        -2.17884804189199    3.66087675682534    7.88052344115149
O        -0.24090977314386    5.87976284655854    1.03494092170458
N        -1.03474532280979    4.12367917077677    5.82915407142575
N        -3.07828581026463    4.82237096715467    5.79332002577618
N         1.12466738324398    3.52011233284621    5.36992097101115
C        -3.76652950256266    5.05077112569652    9.19384196011251
H        -3.23229280593140    5.93040452306082    8.86416283780902
C        -2.48435516125007    5.12238651543453    4.58913212798102
H        -3.03490129730604    5.61833800727262    3.81472706531986
C        -2.16901390343817    4.21112702092720    6.57305135878628
C        -4.00454422453033    2.65769401008046    9.23662858535593
H        -3.67467607791175    1.68142965682056    8.91287158232964
C        -5.08374138179046    2.78395431616163   10.09293573797797
H        -5.59457085073318    1.90019222342761   10.44329076946605
C         2.24701062572240    2.92268678660247    5.74358213075742
H         3.06751539386618    2.92916699217607    5.03717337382835
C         2.38070449180828    2.30606678149552    6.98755438307054
H         3.31905155889232    1.83677660840057    7.23417854352734
C         0.05108039222612    5.35998600141011    2.00373489664372
C        -3.34803467966049    3.79207884967245    8.77173268734019
C        -4.45403062092270    5.10372534182761    6.09947912700913
H        -4.89114447226255    4.28108640952101    6.66389104891314
H        -5.00101373563644    5.22953197174745    5.16660490369195
H        -4.54321950860405    6.02001652565817    6.68664051413297
C         1.33114556082986    2.29718434891154    7.87932823360406
H         1.41722970603230    1.82262519603792    8.84451472044608
C        -1.18654108046448    4.68963981592026    4.58562227101084
C        -5.50328874573705    4.03853044269412   10.50302373558291
H        -6.34257126821404    4.13447627377250   11.17439401270512
C        -4.83931992964542    5.17008515235314   10.05822864725099
H        -5.15415436563491    6.14819454179352   10.38852082591495

