91
CSD_code = PUYBUG | q = 0 | S = 0 | Stoichiometry = C42H34Cl8MoN6 | MND = 6
Mo       14.47820091977862   -0.00012558535663   11.03413645757304
Cl       15.85346141293496    5.41234383716464   11.93949297865388
Cl       17.14243444848018    4.95956154470330    6.74471107565117
C        15.65698146776134    2.34019990955656    9.38802981509001
N        15.24922241451092    1.03691774972544    9.45811327029296
C        15.59160347000226    3.16450034454021   10.52816740432725
C        15.03738810992253   -1.16893553262020    8.24031033377304
C        16.16063135642721    2.95074630335863    8.21748191004551
C        15.47061855203096    0.30871664613038    8.22695369672673
C        15.26774392287748   -1.69885186852436    6.81536861048512
C        16.54214232713546    4.27754065796084    8.21465942307635
C        15.97958836125248    4.48312626946419   10.48759913612662
C        16.46116139102647    5.08483692793674    9.33647186375776
Cl        9.12023951548453    0.04596448766806   12.84246540579843
Cl        8.44139035962056   -1.96698036272725    7.90879157640491
N        13.06408961550564   -0.72231098047500    9.75778587253495
N        15.67892143350424   -1.57957055755002   10.54670132686544
C        11.71040938975571   -0.82031819612518    9.92222370143642
C        16.35723830861974   -2.25740835040334   11.48958352340330
C         9.75370732228109   -0.48200949222307   11.32336946496790
C        11.11437610597875   -0.42060594722221   11.13418313024167
C        13.52196397335124   -1.26486589882502    8.49645245364290
C         8.88461314600798   -0.94596001085461   10.34951442691766
C        16.65185639467169   -3.02419760114052    8.91721593803113
C         9.46455476425314   -1.36260454429008    9.16330203854467
C        15.82474729167879   -1.96491761841799    9.26149755600360
C        17.19249265058357   -3.31553067190194   11.21697515229165
C        17.34978320058572   -3.71421868341971    9.89689018044916
C        10.82548314841915   -1.31181744523792    8.93632133861732
H        15.25192308683164    2.76640304191794   11.46437349441295
H        16.26725715767496    2.41319747228658    7.29161939193017
H        16.53842423884676    0.34196305845403    7.95308102921823
H        14.90515391711185    0.78885980248999    7.41228293907679
H        16.31472985281236   -1.61913892571118    6.53425180074786
H        14.68805408260211   -1.11256975604625    6.10594796355286
H        14.94947749106839   -2.73459534630665    6.72876736151088
H        16.76220101376534    6.11789785177189    9.31512712554571
H        16.21137878319609   -1.91773897333745   12.50765617987251
H        11.72235027492665   -0.07687413727634   11.94808019434707
H        13.03700302740848   -0.72199085773204    7.66947669519806
H        13.23244201336998   -2.32558136787509    8.41074288656893
H         7.82077949652224   -0.98933181671558   10.50708086998286
H        16.76470448644653   -3.32478318069527    7.89049539615310
H        17.70980178465943   -3.81735720193067   12.01836692263653
H        17.99436884744413   -4.53679593646124    9.63361445649159
H        11.17182191347688   -1.66409355004403    7.98051346513723
N        13.70571006614674   -1.03674652025010   12.60959858447614
C        13.29840144929111   -2.34012032140452   12.67978817312032
C        13.36425239112383   -3.16455275654499   11.53978371219963
C        12.97662900038090   -4.48320990157467   11.58042884218435
Cl       13.10256985588464   -5.41235417707860   10.12846886547717
C        12.49501760202685   -5.08490163253124   12.73153812923974
C        12.41406752133037   -4.27760461170352   13.85335369855674
Cl       11.81362571547265   -4.95958846524341   15.32327028614136
C        12.79528333835070   -2.95076548102138   13.85046423888442
H        12.68866053101009   -2.41322142199911   14.77632999307152
H        12.19395437770868   -6.11795828275879   12.75287095220062
H        13.70397443283698   -2.76654149511136   10.60358612704395
C        13.48505955190294   -0.30871304212927   13.84099321482670
C        13.91860798147348    1.16885131125941   13.82770959799032
C        13.68825079998305    1.69882619708887   15.25263545123126
H        12.64125640667554    1.61913229561190   15.53371674605725
H        14.26791034048134    1.11253372252173   15.96206953878297
H        14.00652231851715    2.73456761557197   15.33927544971864
C        15.43403503826359    1.26507164797330   13.57157848808193
N        15.89197921379819    0.72304254157893   12.31008148814816
N        13.27720311961408    1.57944271198235   11.52125627145396
C        12.59886888152197    2.25736773377608   10.57838640962668
C        11.76356868173000    3.31545234160515   10.85102693893250
C        11.60624042943693    3.71410808606215   12.17112532794004
C        12.30422829171188    3.02410383602843   13.15077220302134
C        13.13133521752174    1.96482781018857   12.80648112462702
H        12.19136783838715    3.32467036208029   14.17749927628617
H        10.96169177687956    4.53670973141611   12.43440497289935
H        11.24623561980248    3.81728676956548   10.04965339900082
H        12.74462954674209    1.91769691055499    9.56029062198842
C        17.24565452319139    0.82081754073932   12.14568308711918
C        17.84171743826088    0.42066967993288   10.93388204797245
C        19.20238500130968    0.48187198264090   10.74474672435769
Cl       19.83577104203626   -0.04585421105382    9.22552547718613
C        20.07148312000296    0.94590173946756   11.71855220844683
C        19.49156878596113    1.36248105901934   12.90480271730508
Cl       20.51473019102924    1.96697196593125   14.15925570967677
C        18.13063460958300    1.31190454968494   13.13173200593753
H        17.78431685181135    1.66410669333027   14.08757417943881
H        21.13530830577201    0.98931158991467   11.56094580319734
H        17.23379294380842    0.07678009269753   10.12004378873868
H        15.91896400456238    0.72201160169203   14.39844328766866
H        15.72357241849466    2.32576042923422   13.65748467587339
H        12.41732788778617   -0.34191823333473   14.11513820524452
H        14.05071929777803   -0.78892550309681   14.65550472451535

