65
CSD_code = PUYDES | q = -1 | S = 0 | Stoichiometry = C37H25FeO2(1-) | MND = 7
Fe        6.58376404847043    4.17973654195734   26.71955591905887
O         6.06280248044168    1.94495466099273   24.91203498548295
O         5.47029530923028    5.40622716236233   24.31423976369665
C         7.25909550899156    3.45267457544916   28.95774241490405
C         8.38824052383424    4.18699822225657   28.45839937915977
C         7.98389383897678    5.53923512535774   28.28804341216609
C         6.61089657073218    5.65116185958078   28.69527236787321
C         6.17163493507805    4.36694591225878   29.14467293776688
C         6.30378857307986    2.78597923920686   25.69473723601019
C         5.92668435829848    4.99348284712690   25.31403250063359
C         8.29920513661881    1.58042566399081   30.22534167777334
C         8.28282004707028    0.27461180644132   30.67828880113308
C         7.23594163193671   -0.56827759695349   30.34512252277869
C         6.20524763392444   -0.09656726501140   29.54661224838588
C         6.22156530331855    1.20419364345001   29.08593214644939
C         7.26820970246179    2.06486676654691   29.42082123310810
C        10.85584044954176    4.31978286520759   28.73775115270685
C        12.11847819961534    3.78410981346963   28.57025433973002
C        12.28296651833012    2.56049064635870   27.94282283496992
C        11.17002620571609    1.87871635624408   27.47281411199504
C         9.90846245718578    2.41447148175903   27.62791209403297
C         9.72877870922975    3.64329373756332   28.26789599183993
C         8.93971448186261    7.81473534615746   28.61664966954137
C         9.79047717272714    8.83136502623172   28.22595290012587
C        10.58164846661195    8.68780695309196   27.09841434102756
C        10.50975716049576    7.51842660177730   26.35589139257240
C         9.65474098606439    6.50482643601743   26.73683000167474
C         8.85915414513850    6.63495103093110   27.87662267712004
C         5.88808824718505    7.84626267743984   27.78823060359795
C         5.24298214525245    9.05829427473722   27.92772520356715
C         4.58109752460601    9.36706708064743   29.10615017995847
C         4.57115792790263    8.44995496849188   30.14380544488725
C         5.22246626511200    7.23841276767394   30.01131183780097
C         5.89079133517209    6.91658937989978   28.82967325064006
C         3.70500513864550    4.57604834573674   29.18771242241181
C         2.48099608932007    4.34041730967678   29.77655695715822
C         2.39733239168859    3.59536805597650   30.94477433018605
C         3.55436879820629    3.09137947257618   31.51586425716379
C         4.78449501513312    3.33444703719804   30.93621580319333
C         4.88094467133875    4.08104356098906   29.75946227837339
H         9.11407723055075    2.23610690494288   30.49933131893517
H         9.09126044735998   -0.08735199169757   31.30015504793896
H         7.22494192380885   -1.58919230772141   30.70257337669124
H         5.38889588537302   -0.75250526772093   29.27653880804781
H         5.43406667715452    1.57103037542004   28.44081185798810
H        10.73510939329685    5.26909192420780   29.24073158444692
H        12.98214803403750    4.32291597140819   28.93785485337662
H        13.27238054257045    2.14217334568276   27.81594084823272
H        11.29220381750458    0.92708742696596   26.97344454086792
H         9.04095506942637    1.90097017927718   27.23476143520536
H         8.33311947028026    7.92894058034651   29.50427462349533
H         9.84006807934936    9.74231823251543   28.80813967532443
H        11.24738648090175    9.48498201814981   26.79617594334580
H        11.11883903431206    7.40462444904172   25.46938388383017
H         9.57141399561415    5.60099533494853   26.14683060682483
H         6.38206752948442    7.59175851220081   26.86023054237629
H         5.24776957501365    9.76660282617178   27.11032753109959
H         4.07243279882652   10.31570523182130   29.21325762756560
H         4.05546204807279    8.68319096036324   31.06622475096741
H         5.22036837089354    6.53254785391323   30.83005945379831
H         3.77332422978770    5.12661064735863   28.25835960786882
H         1.58038091754419    4.72812689592534   29.31966911799332
H         1.43602377500189    3.40477146107956   31.40251209922975
H         3.49703569547183    2.50799680721033   32.42584292620639
H         5.68321287382085    2.94929123732149   31.39752431569568

