41
CSD_code = PUYGIA | q = 0 | S = 0 | Stoichiometry = C11H19B10Co | MND = 11
Co        7.36199313393886   10.61634138215123    8.94589577513011
C         9.07922851715984   11.65359369902801    9.07187092634868
H         9.87356094278664   11.30269679335058    9.72968195320659
B         9.02428451482171   10.97156497405198    7.68033068018523
H         9.80252221146289   10.13041954136718    7.39511090874570
B         7.93186167596535   12.49034619328661    9.81684706571928
H         8.05821288344811   12.56968788959838   10.98729640320170
B         9.10946561686545   13.27583338566601    8.59820402267707
H        10.07295241897791   13.83577559600270    8.98237301699421
C         7.98076648033736   11.41484657518973    6.56604982539869
H         8.03624702657607   10.76557455570424    5.69755861140036
B         6.38713732466036   12.43632630715978    8.92962409652249
H         5.38272024177668   12.36492570591447    9.54358347347550
B         7.40799368641618   13.89908541473957    8.93497878891120
H         7.16528958348816   14.85469715688374    9.57825148952240
B         9.03975311729298   12.69928903359112    6.74756402673366
H        10.01231466380296   12.73033471919101    6.09044284725516
B         6.49954322175029   11.71834013876210    7.25596440513615
H         5.59297907825438   11.10883641264601    6.81110702835465
B         8.14313214803611   14.04989900736138    7.32916910545093
H         8.44364306140895   15.13082298819818    6.96969110499440
B         7.35810943095007   12.91015444547705    6.19526769548909
H         7.06434735890037   13.07760345039733    5.06932919605234
B         6.42166967825855   13.50353115424062    7.53147865912413
H         5.45806065128203   14.13647737552537    7.29302779245146
C         7.75144258288906    8.38189884166563    9.12124994220497
C         6.52345522044266    8.76095253979576    8.49145096043263
H         6.17228049226801    8.38094421973398    7.54527898925599
C         5.74168568993241    9.45843631629797    9.43777296906823
H         4.70406625586638    9.72433347060066    9.32042042189699
C         6.52441837490098    9.68064676878977   10.59224888800483
H         6.17675544727113   10.11378923376121   11.51555142062409
C         7.75794292082137    8.96369617017830   10.43245145475672
C         8.84126322481189    8.74069004206783   11.28953435148173
H         8.84827059231153    9.16835130161834   12.28153762976880
C         9.88320786192228    7.95839563323042   10.84802433715866
H        10.72281759724701    7.76589602884063   11.49958288715319
C         9.87495692487316    7.38661046980357    9.56817318173929
H        10.70726159306049    6.76747854014459    9.26749899229017
C         8.82603019939962    7.58846964173641    8.70237636727654
H         8.81975635336964    7.13490688624688    7.72164830840112

