47
CSD_code = PUYJAV | q = 0 | S = 0 | Stoichiometry = C13H23B10Co | MND = 11
Co        5.42426544389899    1.18101043378892    6.01937414742597
C         5.27235231497125    3.36762770460537    5.51018434082135
C         6.36205915585134    2.95511071211038    6.36997045182714
B         3.84727621679689    2.48587190958097    5.54791080908097
H         3.42353760597789    2.35297228439092    4.45320152609055
B         4.02382189323121    4.13751655489234    6.32710498511477
H         3.71008811977245    5.12201309999051    5.75914566412248
B         6.18052867684337    2.34886253345763    7.81608898501694
H         7.20950956290325    2.10079816873139    8.33901926821047
B         3.46735676911702    1.33974400870630    6.82995789064320
H         2.75039711504323    0.43891610794902    6.57744864496381
B         2.77999827453746    2.99834119114605    6.85305349053616
H         1.64326433593956    3.20501633740741    6.63025480116884
B         5.42935303203656    4.03350558423498    7.55449081816985
H         6.08307558846254    4.99854414489126    7.70075452211884
B         4.73504279469185    1.25410678963415    8.02482140835223
H         4.96169851332463    0.24598604922268    8.59204186120311
B         3.74299656016888    3.92405056369409    8.04892955490124
H         3.27146573403601    4.82930274827556    8.63631803965856
B         4.88060862738624    2.83961756537168    8.83458843046830
H         5.15496335612345    2.92371512141777    9.97678374950844
B         3.28731847456510    2.23031182490661    8.35205192286160
H         2.51728346361004    1.89307511923105    9.17506425578967
C         5.63232086433801    4.00529892291755    4.18437382368935
H         6.24545260351756    4.89482329955594    4.33253190329328
H         4.73526272974255    4.30231441414675    3.64695229574745
H         6.18645311857557    3.31377826792053    3.54961373207914
C         7.76555893698561    3.30402852313880    5.92084257259768
H         7.97493625131862    2.93082614074453    4.91972941425790
H         8.50942019384727    2.89718076595033    6.60189394678035
H         7.89501387194876    4.38749472981355    5.89814304372174
C         5.17530159464587   -0.27575398912232    4.33947566483402
C         5.16301469210482   -0.81362615770855    5.67193064722968
H         4.40945725079633   -1.47752200880356    6.06026639159070
C         6.46451580182986   -0.64879923315088    6.21135297113796
H         6.82255088159338   -1.08090442974747    7.13086522644207
C         7.22107018857772    0.12918615063730    5.32911241659584
H         8.26407884300794    0.37544511141882    5.44703287886160
C         6.46288486433238    0.32135009176964    4.12959520024023
C         6.77197206480796    0.89770885891801    2.89267860315015
H         7.74901684267722    1.32881794326834    2.71608442449237
C         5.82299676999035    0.87495780354451    1.89579426208190
H         6.04895895968084    1.30532536936161    0.93092796615793
C         4.56791520792881    0.28594076678076    2.09983857020380
H         3.85870729523344    0.27674378011323    1.28552035385182
C         4.23504384113467   -0.29071671043018    3.30296094035292
H         3.27073470209513   -0.75321496867805    3.45072318256569

