83
CSD_code = PUYKIE | q = 1 | S = 0 | Stoichiometry = C31H48AuOP2(1+) | MND = 2
Au        2.76466459127380   10.66199711318144    2.96528951702507
C         2.34573665466383   13.00865119789378    5.22027957374216
C         2.13209919711679   14.27814344696302    5.75364237830615
H         2.54658010477317   15.13918983733866    5.25622203528071
C         1.39350636817939   14.45204970258916    6.90562174852813
H         1.22706273574755   15.44440654176710    7.29438849787761
C         0.88523707963042   13.35396078129756    7.57658403749967
H         0.32919704606960   13.50897905851260    8.48517931940668
C         1.10366994575362   12.07116670177938    7.09959956513674
C         1.81014850392702   11.90808063224430    5.90668275978453
C         0.70146006337588   10.81515233528647    7.84993279089254
C        -0.37791051640268   11.07620290829754    8.89861820992537
H        -1.28812494041208   11.45434181160837    8.43879913870247
H        -0.02416036951157   11.79503513646110    9.63198021540646
H        -0.60544769574000   10.16268924447105    9.44028142012451
C         1.96302015080727   10.28150499019877    8.56320143862338
H         1.72947951091382    9.35936468469234    9.09018051544984
H         2.32038111804946   11.01465064977315    9.28256359858395
H         2.76284898047549   10.07836005444827    7.85352047376609
C         0.28348570567812    9.77520636798004    6.82716833487882
C        -0.72431050701370    8.84865711774893    7.04289462831627
H        -1.31618750045375    8.88819340712205    7.94114711517477
C        -0.97364009755043    7.84951423936678    6.11883370055679
H        -1.75276892148837    7.12705306000009    6.30485521928201
C        -0.21514549736042    7.76492690512574    4.96992270169709
H        -0.40304506853423    6.96827899655597    4.26948781875162
C         0.78559593230189    8.69568824481185    4.69736633937992
C         1.01797764589554    9.70729821063039    5.64180520992561
C         2.74615988501630   14.10711202660823    2.46043853556511
C         1.21918010770790   14.13250977864793    2.56601505647178
H         0.88495077461192   14.63146804922264    3.47263746268309
H         0.82009770227719   13.11529595606818    2.56779203358481
H         0.79725971229973   14.65800688970225    1.71181527725544
C         3.32462018384344   15.51223367995549    2.59963176213425
H         2.89406903211977   16.14107989296290    1.82128516517256
H         4.40300110564240   15.51290306261165    2.46229586493875
H         3.08811350501978   15.97376790937737    3.55360937592260
C         3.13318091163220   13.55834159224998    1.08154204322779
H         2.68138777758761   12.58066911407822    0.91102814604040
H         4.21094660952034   13.46075979986918    0.97631449785175
H         2.77962923274208   14.23357201814855    0.30498302662741
C         5.08202068279180   12.97919765719966    4.29017266151802
C         5.31340635536953   11.74166373432057    5.16232095565544
H         5.17168194132466   10.82755689835744    4.58547599720202
H         4.62938102976252   11.72562609823515    6.00990999300997
H         6.33027844499477   11.74454271185458    5.54927126942661
C         6.00990171657392   12.92453611647076    3.07786163757685
H         7.04012967053015   12.80512811153874    3.40832689613698
H         5.95418610415233   13.83761974143878    2.49010637574932
H         5.75965050952842   12.07692328230052    2.43828779570109
C         5.33911604114459   14.23186796756670    5.12203624672031
H         6.38163980582978   14.23456875138786    5.43638904689247
H         4.72071495050226   14.24218273185380    6.01713124615333
H         5.16151816493349   15.14225722535143    4.55823279901230
C         2.94484886637528    7.17592131422589    3.50156145577653
C         2.28495826989300    5.90723596306213    4.03275455099072
H         1.56673189666028    5.49433592804499    3.33112773907878
H         1.78836464888702    6.09144211450388    4.98316194534289
H         3.05571286621189    5.15618188271554    4.19845209617111
C         3.73802088715101    6.88975581555670    2.22763138398820
H         4.57996124507324    6.23950592959629    2.45811801618809
H         4.13154483759133    7.81395844657736    1.80207954329843
H         3.12772108235029    6.38935580585110    1.47970127600337
C         3.88783036595590    7.73835511459593    4.56951739064724
H         3.33778892130177    8.03888521671090    5.46078131182486
H         4.43119439393786    8.60338866352460    4.18906421329215
H         4.61444214037335    6.98237884764998    4.85965238301003
C         0.54083753889454    8.27874902137602    1.74543742302668
C        -0.64473638736350    9.20866466728646    2.01625681209653
H        -1.25456733565346    9.30236959743448    1.12005584052054
H        -0.29298263850123   10.20590933081933    2.29171952611428
H        -1.27477944370351    8.83517695716617    2.82020395356493
C         0.06504880306456    6.84775378697460    1.51273680836450
H        -0.47029153524368    6.43791019163472    2.36396397822691
H         0.89241096503659    6.18871330350686    1.26199393404189
H        -0.62316569971186    6.84690493497171    0.66842537984475
C         1.26562137902373    8.76180591577824    0.48304020829547
H         2.16100885444550    8.17724818927638    0.28593918614480
H         1.55280864167797    9.80954126989006    0.57716192560176
H         0.60699265354591    8.66847508315645   -0.37803760804762
O         1.99665982462294   10.64365725445878    5.39454192376968
P         3.31080598281378   12.78408198871156    3.68448700714912
P         1.75957579763019    8.59530328940881    3.15361092539285

