83
CSD_code = PUYKUQ | q = 1 | S = 0 | Stoichiometry = C31H48AuOP2(1+) | MND = 2
Au        7.42614106215505   12.02574811800003   11.49361786279161
P         6.39161788580907    9.97060052603236   11.64458612843850
P         8.01313772702829   14.12117503915275   12.25571125414889
C         5.87891054628620   13.34167555822077   15.70216625386137
C         5.73791487629883   11.01566920893115   14.18802211849109
O         6.71593022776736   11.95182417166651   13.93842611151453
C         6.55398440357825   13.20367663288738   14.48802177709672
C         5.47196662151331   10.03108071923229   13.22386691296386
C         7.56549389731112    8.52161653662372   11.89494610087300
C         4.47429285799408    9.09821761791567   13.50109751343151
H         4.26062582122391    8.32215251689737   12.78501978469922
C         5.48718946070125   12.06975381502015   16.43146975640699
C         7.08245496090471   14.31701917422275   13.81660164621308
C         5.03688952613661   11.05702301472830   15.39483814725578
C         6.89039299927442   15.57462635228536   14.38521873492269
H         7.29862497199880   16.44509818243707   13.89887016504788
C         3.75073388165880    9.15521678343825   14.67393716328586
H         2.97402471121204    8.43115251627624   14.86406189714914
C         4.03127769359302   10.12935113526419   15.61569832133620
H         3.46551139042514   10.14824077059285   16.53131992224153
C         6.90746579893723    7.24075157781622   12.39814853038507
H         6.16068010833297    6.86442171869409   11.70576147865299
H         6.44587428484262    7.39290749674994   13.37152239157150
H         7.67342035406554    6.47460614665409   12.50794318033705
C         5.11682864242965    9.72764781270072   10.27112758156993
C         5.68215350558270   14.61386680829897   16.21559469457266
H         5.15050935951599   14.75057416660189   17.14161636967998
C         7.43433161052885   15.47535936372965   11.07335161940537
C         5.91053748046413   15.51528665910847   11.21624313765128
H         5.60401288281798   16.00485479230202   12.13760442413637
H         5.50063685944834   14.50237649752228   11.21375373071231
H         5.47377628526402   16.05720043300364   10.37996999339614
C         8.55331923820784    9.02911043544714   12.95007484100899
H         9.28152831651579    8.25458375432623   13.18150327583496
H         8.03889657196459    9.29659139565032   13.87271999288819
H         9.09221101149171    9.90448711989248   12.58690894871335
C         9.79866562026085   14.28638633891205   12.82703859584618
C         8.30896390121612    8.27708023971654   10.58266943646467
H         8.69578298015843    9.21313934058351   10.17746562160151
H         7.66627297243994    7.81061920047669    9.83986574462008
H         9.15218420517693    7.61108923706820   10.75679333738471
C         4.60320618373174    8.31542998894321   10.00619204362298
H         3.88870612524005    8.35753532576728    9.18507730019210
H         4.08633590414397    7.88811298808513   10.86017221102217
H         5.40780193549204    7.64871906041999    9.70654076659237
C         6.18066038805866   15.72492333984831   15.55852030878353
H         6.02956672976150   16.70854433757298   15.97490143500287
C         4.43624155407555   12.31130583743665   17.51329852351842
H         3.51591705523552   12.70298003331232   17.08596734328312
H         4.81175007719292   13.01226541453778   18.25315129096043
H         4.21890583149537   11.38677681316673   18.04032067753132
C         6.76270817323922   11.51121854294876   17.09936617837763
H         6.53568918405678   10.57874138289488   17.61074797272047
H         7.14387594514514   12.22483606512534   17.82608566748070
H         7.54241892026640   11.31893120310570   16.36472545013590
C         5.80304956669637   10.24197530477319    8.99979029564551
H         6.67102496752390    9.64055593644665    8.74092198757791
H         6.12580872434045   11.27620662169820    9.12315419799558
H         5.10674024113179   10.20330305295130    8.16449471550865
C         3.96105135448003   10.66929509586254   10.61970154693419
H         4.34232709910507   11.65109893431702   10.91080013789014
H         3.35804185461493   10.28130560540122   11.43744032985100
H         3.31642297994805   10.80172496611208    9.75323324708451
C         8.03194101013611   16.87076681300984   11.22744155274827
H         9.10500974923012   16.86441456110664   11.05337731616745
H         7.83327895970180   17.31021814303041   12.20032179424096
H         7.58190599196850   17.52307773422014   10.48017569963989
C         7.78209446979696   14.95059059300620    9.67460405237872
H         7.42673722714363   15.64984781800390    8.92053156371326
H         7.30735344636234   13.98606542465364    9.49199790982701
H         8.85528232700566   14.83355574452668    9.54494453371604
C        10.03539840685487   13.03163595649109   13.67261545979815
H        11.06328220168256   13.01124301345183   14.02825402429839
H         9.86030459220189   12.12909149725266   13.08713014668640
H         9.37764104671742   13.01373797925734   14.54040920274685
C        10.69856527207762   14.24351285512597   11.59331118441438
H        11.73529562859374   14.11313630900241   11.89811460613397
H        10.63499825200357   15.16545652596835   11.02036879153196
H        10.42803926623469   13.40699193222845   10.94742425665246
C        10.08783949078456   15.52184613615359   13.67394426606574
H         9.48415982610493   15.52819084799765   14.57872595911004
H         9.91551243070341   16.44293763130251   13.12676389671229
H        11.13484209706553   15.50433770856861   13.97166565725962

