55
CSD_code = PUYXAJ | q = 0 | S = 0 | Stoichiometry = C22H25Cl2O3PPdSe | MND = 4
Pd        5.02209642493348    8.62322819124479    4.08057644767298
Cl        3.98219782533284   10.55253020456644    4.71945759868866
Cl        3.04103261574901    7.55131953153807    3.92337938487582
Se        6.78609266641538   10.13522271221428    3.97683974774550
C         6.57454457653554   10.30220640341190    2.04951116702691
C         5.30640706428753   10.20253635120057    1.48321315084302
H         4.41738665264647   10.04926870487106    2.10598158953747
C         5.16774839370816   10.32522176348763    0.10995172571915
H         4.18605699068771   10.24845468830867   -0.33242720967752
C         6.27748744820373   10.54003243434673   -0.69088335672089
H         6.16203253311796   10.63148411902972   -1.76009548768874
C         7.53453856334391   10.64498877285805   -0.11876867866439
H         8.40083449838276   10.82007167564158   -0.73923420900819
C         7.68740604851105   10.53517307823941    1.25240607217455
H         8.66734467994946   10.62135201899320    1.70081211243312
C         8.33054692211601    8.94097331605970    3.93584186484901
C         8.15096256955916    7.55284170174084    3.87096138147763
C         9.27343655765063    6.73875734816400    4.01940456276145
H         9.15766827530750    5.66778012533647    4.06477314993183
C        10.53340848696441    7.28966372874558    4.17964569915236
H        11.38580709508914    6.63804444334433    4.29996443122668
C        10.70218103497143    8.66352353654759    4.20735140656020
H        11.68496474204195    9.09116025101847    4.33502256211779
C         9.59441651977458    9.48726954714193    4.10804138993466
H         9.69861749382332   10.56185378125000    4.17871689682740
P         6.43479979474398    6.92421774937995    3.68217594959595
C         6.30331236593422    5.88580042357508    2.12523902605366
C         7.38021775724546    4.81114676324693    2.05869571307165
H         8.37523951001686    5.25267195349805    2.08692940081100
H         7.26299316282943    4.24635340932788    1.13099159567034
C         7.15115589781297    3.83679651556117    3.23158326798041
O         7.32282104194999    4.48336616769002    4.48339006624423
C         6.32784378581398    5.44422311108147    4.82095688621679
C         4.93238978822108    4.86323526491465    4.62498446681681
H         4.17073768497633    5.63883851164031    4.74749551100355
H         4.76233925730838    4.05393769639824    5.33736998204651
C         4.85719268578733    4.28867421300089    3.20519259448899
O         5.01809066844104    5.30155047239654    2.22833655318713
C         6.27368978753599    6.80832331024975    0.91344449606898
H         6.11889424426848    6.23401160585031    0.00323023400874
H         7.20486787670572    7.36946110181756    0.83999566958157
H         5.43590671314120    7.49942623841540    1.03563998440760
O         5.86163944794098    3.29456574606265    3.08621331312560
C         8.14252917843183    2.67719602980197    3.20838729145551
H         7.95073345574716    2.03716493085542    4.06380666635616
H         9.15802187640807    3.05712821216421    3.26174356901221
H         8.00471078159999    2.10599693825211    2.29653367176882
C         6.54516776089513    5.93950338734644    6.24636243228577
H         6.32674625662403    5.15524910974627    6.96713901640379
H         5.86793010011550    6.78891479527012    6.41743736255488
H         7.57567874250544    6.26508662682258    6.38005536152396
C         3.50647558490584    3.64627041155066    2.92536016313554
H         3.51104600924412    3.22979068042908    1.92304821798726
H         2.74457218459366    4.41567134931078    2.99726445296565
H         3.31813991915088    2.85746884503980    3.64545368437361

