33
CSD_code = PUZKUQ | q = 0 | S = 0 | Stoichiometry = C8H16N6S2Zn | MND = 4
Zn        4.72536060661857    2.84980448631468    7.28803532219389
S         2.97776326180751    1.42861031371125    6.61439013512903
S         4.87840093091367    5.15277856602974    7.73457809059968
N         3.38887630768794   -0.20590908788695    4.63606043591226
N         5.18512529107371    1.09636063419320    5.01719098300152
N         5.85436358615735    2.03906399257117    5.73056425575558
N         5.99058900212925    5.92503677759601    9.95327864845402
N         5.90851783765092    3.67998102516079    9.80911503355121
N         5.62802916663290    2.52941885319658    9.14344728378755
C         3.97184983332360    0.78717208279930    5.34669803450385
C         7.04598960453757    2.31352245272778    5.33845456468179
C         7.85628469881376    3.32620813658052    6.06327788673775
H         8.11616574014202    4.14081760636073    5.38779826351516
H         8.78399718828839    2.87561761692939    6.41497441252983
H         7.31447767174088    3.73562417852458    6.91241117515157
C         7.65456242942541    1.63187396065070    4.15550301338830
H         8.66391039997939    1.98575031698013    3.97080947922480
H         7.03332189047036    1.80863989269530    3.27844328716512
H         7.66131577128778    0.55522146378031    4.32089442453088
C         5.62449634925593    4.81938412158875    9.26413648468360
C         5.92387043881484    1.43417009270723    9.74500432039546
C         5.65752471455145    0.12698234678589    9.09081187475166
H         4.98434183654928   -0.46395890790772    9.71110409080400
H         6.58803657039516   -0.42999739593198    8.98399042824501
H         5.20643614706857    0.25737891115275    8.11022010677764
C         6.53913828617603    1.43323299709575   11.10728394730251
H         6.77792303359096    0.42572640410756   11.43281650283253
H         5.85046584710719    1.89486049437043   11.81392785588005
H         7.43778056946306    2.04839282531597   11.10012888062816
H         2.39804488116647   -0.33638129260037    4.74084562214057
H         3.83638727872305   -0.50375847927077    3.78601245145713
H         5.61822524678473    6.80807515631640    9.65122264370964
H         6.26512758167280    5.81199945735465   10.91407006057889

