19
CSD_code = PXCPYM | q = -1 | S = 0 | Stoichiometry = C6H4MoNO7(1-) | MND = 7
Mo        2.05997571327842    1.73419437623003   19.11357849457142
O         1.17199749059264    0.48718107424336   19.71206381781500
O         1.05641977132232    3.25774353119463   19.49670250671201
O         0.79627448088499    2.77107072028914   18.23369454098250
O         3.80361925072977    1.24837394694631   19.52634013488440
O         3.29149104571529    2.12757261876146   20.45627405677044
O         2.45372839541372    0.92588836560982   17.23968278348875
O         3.37851215237995    1.09842291385543   15.22053439109265
N         3.32634646741872    3.27711928278889   17.97568944941350
C         3.72939411391260    4.45405673001808   18.42303136386879
C         4.48239188266988    5.31946590995791   17.64207031665551
C         4.82147835537440    4.93494364228918   16.35271307708425
C         4.39573493992374    3.70028530764420   15.89268050722807
C         3.64488682637405    2.89913467894900   16.74484672448561
C         3.12378494158324    1.51837289538746   16.33800523808156
H         3.43212128944358    4.69381212887929   19.43682005871240
H         4.79530718936369    6.27408530981139   18.03742391291227
H         5.40688716414747    5.58832277782175   15.72019027760108
H         4.62124852947159    3.33445378932270   14.90305834763981

