39
CSD_code = PYACZN | q = 0 | S = 0 | Stoichiometry = C14H16N2O6Zn | MND = 6
C         2.58925433120998    1.13016376811461    0.97307671682290
C         3.93233255428401    1.07441822734543    1.35729233455742
C         4.46930012834308   -0.11857774968201    1.79235439922459
C         3.65319814817971   -1.24372869816144    1.83209384550440
C         2.34614438001499   -1.12087564674879    1.40658851370727
C         1.97633156834669    2.38007313648092    0.48570078761439
C         1.64341581059625    2.15650122243466   -1.03438359717242
H         4.53123270085281    1.97039196141712    1.31522182650272
H         5.50221382446262   -0.17630987810994    2.10201543919605
H         4.02549517798389   -2.19292604904861    2.18165607521449
H         1.66722332253171   -1.96043529933568    1.41479379740686
H         2.64662678673493    3.23032745328284    0.58914885308556
H         1.02556675091682    2.56248830602465    0.98280243173555
H         0.86268795804245   -0.49055390431717   -2.27509922418423
H         1.84279159545839   -1.48431743303341   -1.62292334052410
N         1.82842106103568    0.02862980795585    0.97873110925424
O         2.31354047670274    2.71828482876700   -1.87131843185786
O         0.68031176634200    1.35760495233955   -1.24802448201656
O         0.90865099950215   -1.27328194386221   -1.70715836522248
Zn        0.00000078137438   -0.00000306026597   -0.00000286929461
N        -1.82842155703125   -0.02862615019698   -0.97872629061331
O        -0.68029746718728   -1.35761842326415    1.24801713929536
O        -0.90867807872963    1.27329008033066    1.70714091982387
C        -2.58925860099708   -1.13015747880573   -0.97307330912802
C        -2.34614039474125    1.12088114342331   -1.40658395022128
C        -1.64340529170253   -2.15651126943612    1.03437940449272
H        -0.86259938890122    0.49060471309156    2.27514119554125
H        -1.84285747480170    1.48418676328356    1.62290201981507
C        -3.93233630827229   -1.07440695041749   -1.35729045722463
C        -1.97634059879816   -2.38007113040569   -0.48570284855522
C        -3.65319305612092    1.24373885870334   -1.83209121051555
H        -1.66721680118494    1.96043872173260   -1.41478868560232
O        -2.31353350532383   -2.71828702174974    1.87131658961208
C        -4.46929917001408    0.11859081808780   -1.79235329649776
H        -4.53123952524035   -1.97037869311144   -1.31522103004349
H        -2.64664282669578   -3.23032036403815   -0.58914872393062
H        -1.02558153229232   -2.56249151582059   -0.98281346851697
H        -4.02548650108725    2.19293766838808   -2.18165332352841
H        -5.50221204379326    0.17632622860791   -2.10201649375640

