38
CSD_code = PYMANI | q = 0 | S = 0 | Stoichiometry = C15H18N4Ni | MND = 4
C        -2.79083884532457    8.19441346759198   -7.38991961233043
C         3.65604977124557   10.74207503810599   -6.35876526777019
C         1.07632828851008   11.25396225544803   -5.09677384580884
C        -0.26821904549446   11.62837844617921   -5.21229762988699
C        -1.00738038163745   12.75873770507451   -4.83771013270410
C        -2.30882927706949   12.51350115442118   -5.23665415491938
C        -2.31907616850430   11.25356016541808   -5.84057139640464
C        -3.24975983504249    6.94463324562964   -7.81131793222744
C        -2.25177443948065    6.02969819311530   -7.52424275380883
C        -1.21069099723083    6.76323465887910   -6.94174583424167
C         0.08477688996310    6.46690041742714   -6.49424424957863
C         2.11269667943448    7.19936832117665   -4.05473663029738
C         2.13934119548235    7.24602326544318   -5.58617220399841
C         3.06931861456007    8.33672142546821   -6.13211671696786
C         2.83127205291664    9.73398045084136   -5.54634680370471
H        -3.31520371690956    9.12716852468266   -7.47991217734625
H         2.92231381074871    8.38594466100764   -7.21465136828846
H         3.18230688127454    9.75079202802358   -4.50296859787815
H         3.62445749445462   11.73298848309382   -5.91392317109110
H         4.69376850448628   10.42145670581574   -6.40613229839923
H         3.26280550214098   10.80797921567976   -7.37106884759787
H         1.79922965132674   11.91964735019772   -4.62959820368459
H        -0.62566164759763   13.62690749521225   -4.33575026746019
H        -3.15718058347826   13.15983694405927   -5.11936125403786
H        -3.17478568887521   10.75875569177070   -6.25946389078034
H        -4.20007006716233    6.74654514878419   -8.26832326664059
H        -2.25459949604097    4.97324494446808   -7.71189396073375
H         0.47656515475042    5.45107693751707   -6.49819778293855
H         1.57935327827358    6.31222939042111   -3.72015932729757
H         3.12385180470945    7.17160443605841   -3.65640616871877
H         1.59403547478780    8.07284717194157   -3.66369335033121
H         2.50632420844078    6.27601128053260   -5.95973400636589
H         4.10548352252691    8.05259952688246   -5.94103836107901
Ni       -0.15649628662239    9.11625853423757   -6.13563866864251
N        -1.56923314046517    8.09670207088914   -6.86089701074289
N         0.80461817923293    7.46998566123195   -6.09145079644058
N         1.42171963272334   10.09299807801254   -5.57421197212674
N        -1.09861697505221   10.71473150926139   -5.83591008672694

