52
CSD_code = PYROCO | q = 1 | S = 0 | Stoichiometry = C19H24CoN4O4(1+) | MND = 6
Co        4.81467859557167    9.91871338242484    3.04861435398644
N         6.41702489777893   10.14072414142449    2.03887079787728
N         5.13005821537007    7.95926653720429    2.81115540351296
N         3.65578103066048   10.23874098529938    1.44996628945858
N         4.48489463758396   11.76524105547279    3.40636521458307
O         3.30562930012710    9.56903829451890    4.05711528707033
O         2.61348348085688    9.35412534025772    6.15755730832364
O         5.43533233763460    9.51180995215167    6.82853713378611
O         5.74646617012761    9.72986297921046    4.64102185508436
C         6.94106110558584   11.29536853516863    1.61360497584366
C         8.16527110186759   11.38155589500585    0.98203423684389
C         8.88872411780363   10.21715193326301    0.76430035638065
C         8.34709493134832    9.02052878460437    1.19587547959444
C         7.11593814248032    9.01633757475471    1.84094393763729
C         6.52491460430701    7.73533067546122    2.36493634567112
C         7.36915443242886    7.21509157538434    3.53309920640807
C         4.13107039873093    7.18840430059666    2.06056489233726
C         3.75622540485839    7.85440522670350    0.73993223239141
C         2.88323310860818    9.08509856802595    0.96193150232065
C         2.76356572157735   11.38699095598085    1.75007435599131
C         2.45707068067628   12.18662427984284    0.48314127200094
C         3.38496364461146   12.24946306118065    2.82072676949732
C         2.83828598959302   13.46525929433704    3.20740250804398
C         3.45249194628460   14.19901692865620    4.20841965535308
C         4.61716315295225   13.70587869144231    4.77680848290983
C         5.09711758760498   12.48239976833353    4.34999259786673
C         3.48833852671736    9.49606132456225    5.34393519399349
C         5.00552633160700    9.58765406624423    5.70731571967851
H         6.97038894804567    6.26894278934000    3.89217369660887
H         7.35977213485457    7.93858871181867    4.34566959632385
H         8.39875600412691    7.05374038578796    3.22742096032095
H         2.06447156758607   11.53860762429388   -0.29593251844787
H         1.70811058244864   12.94741885804692    0.67706743728662
H         3.35437540589885   12.67936384229147    0.11218381799662
H         6.35774098091354   12.18812579676221    1.78826321269663
H         8.54268894444192   12.34072452115264    0.66800111629351
H         9.84794035699801   10.24364746699944    0.27258381279589
H         8.87069411004155    8.09062300482086    1.04144999299455
H         6.53383410724396    6.99006173000894    1.55819730915703
H         5.08494624724217    7.62281081510809    3.77519653624836
H         3.23423521717567    7.10632830294633    2.67842094739470
H         4.50792610246735    6.17623591942054    1.87355578886834
H         3.18986523759022    7.13772223783940    0.14472633266427
H         4.65372795419037    8.11982722549841    0.17582112810945
H         2.37857611895205    9.34301868204380    0.02456360178077
H         2.12552981208819    8.85137143719615    1.71227956175269
H         4.25760957152390   10.53528006064397    0.67743698237086
H         1.83692120884810   10.97829471769464    2.16904395176724
H         1.93148862850251   13.82117652120701    2.74702582377248
H         3.02916141812240   15.13447484095105    4.53843473081326
H         5.13721787903716   14.24518508282213    5.55100461872607
H         5.99046186630510   12.05248531779189    4.78116819725858

