39
CSD_code = PYSALP | q = 0 | S = 0 | Stoichiometry = C20H14N2O2Pd | MND = 4
C         3.51072971294645    5.40400879002533   -2.36843394171265
C        -0.21998502358257    0.09295605934552   -6.30995376987389
C         0.58260879250382   -0.29351704767785   -7.39624943694721
C         1.82453586321418    0.25096721796758   -7.53724201928805
C         2.34246167048386    1.20037013627053   -6.62112899619508
C         3.64971224413402    1.67740860515995   -6.85604428896356
C         6.15863717567775    3.93654106829007   -5.56602689910952
C         7.47122682773511    4.36587903246542   -5.76866785326531
C         8.24213825165969    3.82307891117969   -6.77745969021911
C         7.72146222597222    2.83595879512812   -7.59964026936912
C         6.42854118786994    2.38750370167928   -7.41524080494942
C         2.86264438629194    6.01361504423067   -1.25375661359238
C         5.62571388422145    2.92399423262601   -6.40730022479587
C         3.42636116151344    7.04000301854791   -0.55651694234984
C         4.68854753530330    7.54057965932046   -0.91716515560841
C         5.35216827705557    6.98541710809463   -1.97077545182143
C         4.81289444841438    5.91181391106697   -2.72292916284052
C         5.60223566620602    5.40053455664417   -3.77515971098921
C         1.51910725277528    1.61108275586417   -5.51096635252481
C         0.23154445862283    1.00668089789265   -5.40522419115649
H        -1.20347583936240   -0.33944955460825   -6.19535142498080
H         0.21436899055938   -1.01607719868835   -8.10790916718579
H         2.44929377703164   -0.04365687248465   -8.36950691284659
H         4.12720584954406    1.26557889436814   -7.74470742872462
H         7.90919227721920    5.11854664270004   -5.13248103883433
H         9.25594918039150    4.16498454674894   -6.91798130163991
H         8.32867956361309    2.40773616741674   -8.38216767959730
H         6.05748778124876    1.60515271509432   -8.05810637730271
H         1.89147679893127    5.62207820555993   -0.99249019574223
H         2.90129984734381    7.47692733060701    0.28019691076720
H         5.12315414580268    8.35621348177750   -0.36038377652562
H         6.32573083999341    7.36331309467418   -2.25263751989564
H         6.55829832651066    5.90585549332329   -3.90847256508269
H        -0.37503614313155    1.31634432230283   -4.56778769188301
N         5.30015236807009    4.40652552031264   -4.57142051383374
N         4.31605917853373    2.53419685284251   -6.12448319316642
O         2.89519451749720    4.46311293973258   -2.97345481701018
O         1.84725576108713    2.47165091237305   -4.62668001849656
Pd        3.59262678009765    3.46159005182615   -4.56709351244739

