56
CSD_code = PYSCUA | q = 0 | S = 0 | Stoichiometry = C20H30BrCuN2S2 | MND = 4
Cu       13.07102373664666    3.89864565473859    0.73275123694184
Br       13.79146125881133    2.15220399393639   -0.58142174462610
S        11.73090322396286    3.31881357596593    2.60102802990506
S        11.61533443590398    5.63261401755154   -0.47411231649237
N        14.26552891570727    3.01596250147895    4.21627430414599
N        14.23499932096486    5.45308026749667    1.16063668877259
C        12.65261548470280    1.77075789404693    2.94736800840160
C        14.07533767124810    2.11227319484228    3.26181543720822
C        15.50143243695036    3.34276468436668    4.54320512255053
C        16.62104803283210    2.78750999984921    3.94226241781709
C        16.42466037711994    1.84672842122822    2.94235990475940
C        15.13044221869174    1.49983873865099    2.59058471653826
C        10.09597167304798    2.69638089270792    1.93621396642176
C         9.51382478730920    1.68261249833946    2.91121231427678
C         9.21979304696233    3.94390781229248    1.87850845083058
C        10.27303641177475    2.10331523662104    0.54919976891942
C        12.40611742654130    6.92535143146573    0.54265056442330
C        13.85369938900768    6.69431505711697    0.84530553735180
C        15.51385758589118    5.22337812769667    1.45021506769334
C        16.47312941218976    6.21597448293374    1.44435734857127
C        16.08705779140626    7.51035391620636    1.12595023831997
C        14.75637233368824    7.74865426779479    0.82138616434310
C        12.29007151698632    5.83793772920633   -2.20028680462646
C        11.72382901790518    4.63908811410782   -2.95475236022290
C        11.75750645301054    7.14465208729722   -2.77143496070975
C        13.80842475809180    5.80153590366623   -2.20955176619758
H        12.18177327899047    1.30594586227123    3.81443817165587
H        12.59449510206944    1.11773745591517    2.07773870960025
H        15.59279583510384    4.08629482120569    5.32494167388559
H        17.61331152951466    3.08488294120124    4.24487984191102
H        17.26421318654331    1.39261891984558    2.43655087249284
H        14.94509163595070    0.78550315832691    1.80432100413442
H        10.06920898466552    0.74801885825257    2.89097575290356
H         8.48358249087090    1.46634123329524    2.63351172988467
H         9.52014297297355    2.07702674059366    3.92525893105140
H         8.23056239792115    3.68419408163774    1.50756217927638
H         9.11806733708429    4.38555996929640    2.86738913833428
H         9.65447766140253    4.68282453845872    1.20858752046586
H        10.68876537147289    2.84476010869545   -0.13128458603201
H        10.93074617948719    1.23721919281766    0.55794505484535
H         9.30711669744102    1.78666856198602    0.15945173389282
H        12.24923653561516    7.89377257523586    0.06871135719245
H        11.82973050453140    6.88713890018625    1.47157406880077
H        15.77056796608859    4.20038934692312    1.68448365896233
H        17.49761664914264    5.97948559110459    1.68086211859812
H        16.80502050441413    8.31594487070640    1.11056546603965
H        14.41712147647641    8.74210704060429    0.56855352929255
H        11.99328752863305    4.70366800037075   -4.00642011562316
H        10.63923203240330    4.61133843822171   -2.87249254247211
H        12.12766136283640    3.71122058971151   -2.55649201067586
H        12.15731181578218    8.00431698250243   -2.23639203670712
H        10.67169522765116    7.17107725315758   -2.71280738478151
H        12.05108665702080    7.23317840893948   -3.81567640632446
H        14.15934698648794    5.79114804858169   -3.24007762297544
H        14.17689944501895    4.90077720578794   -1.72383278606150
H        14.23675592904460    6.67098980269666   -1.71345235686471

