55
CSD_code = PYSINI | q = 0 | S = 0 | Stoichiometry = C18H32N2NiSi2 | MND = 4
Ni        6.67251587062169    6.67247693913422    0.00000874781671
Si        6.05907288317762    9.66520677288394    0.64596199616324
N         4.75510031129572    6.50504969751210   -0.62422071183275
C         6.84445313043220    8.50911494110437   -0.64141213103047
C         7.05685347893448   11.28474737711555    0.85536256816827
C         4.28131301010998   10.17950719752729    0.13398694218612
C         5.95466389685363    8.81235895012995    2.36941931971564
C         4.42675106423947    6.13773309030056   -1.85886283120864
C         3.12820854391428    5.84960762205325   -2.24304945202606
C         2.11561107982706    5.95141971229122   -1.30291147298441
C         2.45345681646018    6.33925096371152   -0.01589828874017
C         3.78033646434992    6.60519668075148    0.27518716970920
H         6.25474566252904    8.50529474661621   -1.56995854276913
H         7.84603803538840    8.85027053334766   -0.90966401526015
H         8.07805422319538   11.07965306100216    1.15913152136621
H         6.61113793069772   11.92705136780146    1.60843919881319
H         7.09722045531792   11.84589039607944   -0.07250248191467
H         3.63833317706229    9.31931105657500   -0.02617896101509
H         4.29636245452112   10.75086993660762   -0.78852626175667
H         3.81807020125763   10.80028428580805    0.89469527292259
H         6.21199066536221    7.75641390067279    2.26080923575331
H         4.96594483825570    8.88394683705131    2.81493244866926
H         6.66218895194262    9.24438490282368    3.06991016337818
H         5.23389460437354    6.07711037317312   -2.57811416191932
H         2.91625857323355    5.55602766213143   -3.25950307704369
H         1.09025243727853    5.73869494308937   -1.56698471952773
H         1.70021803094214    6.43933646532344    0.75031010609386
H         4.07193292642234    6.91989957681583    1.26824005562767
N         6.50488935992681    4.75508922538450    0.62430207773067
C         8.50917275163528    6.84418524512699    0.64140291737351
C         6.13736157523859    4.42682130560628    1.85889679592569
C         6.60518646604074    3.78027063960269   -0.27502068829694
Si        9.66527717596220    6.05900122381477   -0.64608169866122
H         8.50532269063732    6.25432579028825    1.56985819475966
H         8.85035854396011    7.84571959828831    0.90981850513657
C         5.84912895555436    3.12830971371643    2.24311159193854
H         6.07644002529110    5.23403553412604    2.57804859311373
C         6.33921424019412    2.45340536897335    0.01611223977641
H         6.92018327192327    4.07179548802605   -1.26801191931382
C        11.28462517234226    7.05708193865404   -0.85553519169379
C        10.17994659763805    4.28136264428279   -0.13405195517792
C         8.81240522965349    5.95435102269529   -2.36950043203849
C         5.95111454646992    2.11564950993723    1.30306407686600
H         5.55522620062161    2.91644310618113    3.25949765246207
H         6.43956885031694    1.70009622977042   -0.74999871666746
H        11.07927607629746    8.07821371192985   -1.15935853480418
H        11.92699724613640    6.61147769196919   -1.60862068865189
H        11.84580614068081    7.09763825087412    0.07230440160952
H         9.31989812074632    3.63782778079225    0.02467950644981
H        10.75006076659851    4.29634506353836    0.78924807613213
H        10.80201299517870    3.81877813150693   -0.89411849309925
H         7.75647212194097    6.21171360876511   -2.26086599689819
H         8.88396643747999    4.96556554805444   -2.81487582135750
H         9.24442938537838    6.66178085741310   -3.07008606824398
H         5.73837933815661    1.09030578121854    1.56717393817746

