49
CSD_code = PYTCIR | q = 0 | S = 0 | Stoichiometry = C15H24IrN3S6 | MND = 6
C         1.02586520427790    2.58737209517852    0.38000953431902
C        -1.16123722413631    1.78620330305124   -0.36188276106571
C        -2.49173877484724    1.74931380027887    0.38399192193524
C        -2.46360629419394    3.04618897623191    1.19271126967415
C        -1.00351833666776    3.14357000206855    1.62414794156835
C         5.00165801511886    5.41092646891477   -0.06192739187473
C         6.57473132351548    7.05898130333111    0.82033313952172
C         6.96535614429935    8.43197427329535    0.28124238052388
C         5.65565525700930    8.94985213540226   -0.31306077465963
C         5.04853354399771    7.69551596826677   -0.93370336483095
C         5.47077991484441    0.47863965803293   -0.25848334059409
C         7.13274084736351   -0.82610902267710   -1.48899284020790
C         7.99419051199599   -1.99323192833623   -1.01631025169808
C         7.03863142005230   -2.77646914973761   -0.11622377342785
C         6.25947928557186   -1.67257006073367    0.59246190825061
H        -1.24145810774613    2.33048583894190   -1.31008159369386
H        -0.75119855291759    0.79600557978504   -0.57420074257223
H        -3.34130420804526    1.69215344506766   -0.29239993790882
H        -2.51992675852089    0.89107683149572    1.05600426411768
H        -3.14353681016446    3.02947701066229    2.04121960348584
H        -2.72130154672608    3.89083979528432    0.55304659707568
H        -0.81878329772606    2.60000873920878    2.55800939207813
H        -0.65314941543395    4.17013279258368    1.75518948984313
H         6.19223504541276    7.11743041582470    1.84599419408949
H         7.39336147725040    6.33541135737896    0.80636658639353
H         7.71503949108558    8.32644619334108   -0.50347336366691
H         7.36169884202843    9.08114108745423    1.05845037043786
H         5.80713170884066    9.74003353644165   -1.04462205532532
H         5.00798913390602    9.32485815773387    0.47999331362135
H         5.41489775650160    7.52995950194445   -1.95355642811958
H         3.95648361748047    7.70500418720470   -0.96301988867216
H         6.55640225045021   -1.08374401739668   -2.38518864706375
H         7.70319144276466    0.08086463603357   -1.70254400802741
H         8.83761347325319   -1.62288830300209   -0.43279227298953
H         8.37506296959904   -2.58602381032513   -1.84462005703707
H         7.55673412800465   -3.42848046972634    0.58308139848978
H         6.36351704532377   -3.37970845571520   -0.72393375271479
H         6.77015350685185   -1.33348160052936    1.50126700263527
H         5.24148674201062   -1.96135231948774    0.86458966788227
Ir        3.84468027328811    2.80630669257009    0.01059121411896
N        -0.28511408239826    2.50635315725196    0.53955532446905
N         5.51442794057358    6.63065961644067   -0.06947049286103
N         6.23051182172886   -0.59793316560272   -0.37880752952938
S         1.82104976807573    1.85012357101873   -0.93086753114068
S         2.01361010669994    3.43691048149126    1.47407888718590
S         3.75169326438459    4.95221901637754   -1.12092231723224
S         5.55368055824071    4.21095509124735    1.01030776533740
S         5.45820007927318    1.70930647970754   -1.43324981098376
S         4.44869949843935    0.71369110667048    1.08129176084594

