33
CSD_code = PZADMO | q = 0 | S = 0 | Stoichiometry = C11H12MoN3O5P | MND = 6
C         0.61006363218492   10.67952856943574   -3.21828959782309
C         5.14272963436624   11.66518831261001   -6.59138846161757
C         5.14906663519905   13.07622908154872   -4.69109507096830
C         1.18245593277125    8.70509064648368   -5.09414044845818
C         3.14884890468388   11.88122156297574   -5.27055429983334
C         4.78282662388059    9.64677534800581   -5.34120626341420
C         6.54554951907124   11.16640642098486   -4.75133476392561
C         2.94398141663260    7.51251583909070   -3.29819842562685
C         4.79099308141894   11.29832669546329   -3.11632417752375
C         0.31974839381463    8.00421296750635   -2.53244259584822
C         2.39019655442656    9.50069259861207   -1.43483777920583
H         4.53047514401200   13.70828438677317   -4.04830470737106
H         5.94419401356731   13.68509450804816   -5.13221739824526
H         6.97876490212919   10.35970695350261   -4.15392922305136
H         7.35368683696656   11.75757197526559   -5.19288740491324
H         2.54835280736304   12.59609539403244   -4.69136727719044
H         2.54243804106898   11.53335902954376   -6.11840750703084
H         4.24187023488834    9.20948600590436   -6.19194011259242
H         5.29868933567695    8.83483925301880   -4.81040942588265
H         5.30614693386051   10.55305580102763   -2.49467488746557
H         4.25619041977321   11.98883389434816   -2.44965812694923
H         5.93760661045678   12.26098172919598   -7.05043799843886
H         4.51930136842348   11.23417351771971   -7.37935799183103
Mo        1.77387882054291    9.09368969427809   -3.25848970413739
N         4.33095744027359   12.55102117741795   -5.77248272574443
N         5.77102218331302   12.03911668378691   -3.88361010447446
N         5.76453892979719   10.59065396790469   -5.83442513723946
O        -0.06833518194070   11.59340078948726   -3.19300372712886
O         0.84697826598674    8.48419596730024   -6.15970566329186
O         3.61649713901111    6.59415193292489   -3.31806481395254
O        -0.52673888169390    7.36965239326606   -2.11314480923529
O         2.75238899781891    9.74041154596484   -0.38279739228569
P         3.55023531032388   10.42473535657149   -4.18907197729953

