72
CSD_code = PZBCMO | q = 0 | S = 0 | Stoichiometry = C31H27BMoN9O2P | MND = 6
Mo        3.71469585087851    1.79745358981415    3.55540739033098
P         3.17393659906564    3.61695255777912    2.05575285984045
B         1.28989447954016   -0.15693650288678    4.51340319345511
N         4.81101716687657    2.69053282041248    4.57864427835327
O         5.59848125692728    3.20385954455333    5.29197673167975
C         5.24858004438400    1.21110118367199    2.51949574433581
O         6.20572235328468    0.86268845866490    1.98442448233170
N         1.97496557806728    2.23930853822557    4.67652264078233
N         1.03784103925643    1.31581446287692    4.89591660068758
C        -0.01539651225189    1.87178230681617    5.52418086468226
C         0.26789907347949    3.20263926743591    5.73221348744941
C         1.53671356323334    3.38066470152279    5.18115504320196
N         2.44231893663943    0.50481267134746    2.43294064175671
N         1.47202236188405   -0.23058557122290    2.99461091482050
C         0.90290097303909   -1.02604889644475    2.07446255176457
C         1.53109055187487   -0.79604522727213    0.86911169262380
C         2.49604477672897    0.16920089978004    1.15105095600043
N         3.75949196519883    0.10314716740458    4.82147156857877
N         2.64869252910569   -0.57465533069411    5.12275394383143
C         2.95351250058960   -1.60884454400696    5.93019224891267
C         4.30873724854756   -1.57775972085117    6.17016909689631
C         4.76983447217569   -0.47728541527539    5.44625808308943
H         0.71919796493938    2.17475970121542    1.85546102318936
H        -1.63904449418009    2.74214102931410    2.24330184354000
H        -2.27390515762199    5.05810546311521    2.82216861662735
H        -0.53583010823719    6.79962363121182    2.99596358246635
H         1.82428606346814    6.23725033833531    2.61851144969826
H         5.41538220806586    3.02994125617667    0.50809538741358
H         5.80393351854945    2.45607121420602   -1.86745290682023
H         3.89772223445565    2.36321840389055   -3.43545264045042
H         1.62226768402350    2.87304761135599   -2.63642742578693
H         1.23580657236185    3.46144933834065   -0.28459774005009
H         4.40165359626942    5.04671655152633    4.22912969473855
H         5.54535627470119    7.21667487828235    4.40587302733768
H         5.84153514061253    8.62437962571628    2.39817367306503
H         4.96883364854969    7.85785954645294    0.22212096122126
N         0.18262120377300   -1.02037001225679    5.06494629083554
N        -0.65924764700134   -1.76660179088414    4.33930808508158
C        -1.48121628242846   -2.35240340436995    5.18432413943245
C        -1.18435541815195   -1.98772312417849    6.50468315711140
C        -0.11599806633354   -1.13484049210822    6.38325273636493
C         1.43621170544012    4.16726317858040    2.20954420654871
C         0.44491962875211    3.19129780118250    2.10927606314641
C        -0.88213611431640    3.50909566528861    2.32263516195632
C        -1.23795000179316    4.80913657423337    2.64650773599083
C        -0.26185904536620    5.78513681390647    2.74532108827016
C         1.06912485393170    5.46900567526577    2.53090788944421
C         3.30314853497381    3.26878311324028    0.26776429583275
C         4.58974125307391    2.98880240774080   -0.19234369172692
C         4.80465536693192    2.67023973199505   -1.51865112766850
C         3.73384409992157    2.62041172115669   -2.39951436196341
C         2.45608724674430    2.90432550028195   -1.95013771455106
C         2.23667467479515    3.23199152159529   -0.62172303949024
C         4.04949388188869    5.21523333517150    2.12330385493692
C         4.52974757865185    5.66172577378774    3.35030277209862
C         5.17056121647220    6.88367512958803    3.44952610651540
C         5.33539347132422    7.67331576502735    2.32366163143155
C         4.84783220953411    7.24127518294084    1.10092655615086
C         4.20401073756306    6.02150166606389    0.99779460144298
H        -0.88815523720261    1.30426948795210    5.77556835783974
H        -0.34956892508277    3.93663067872708    6.20668425234052
H         2.13228460648958    4.27422319177544    5.13112184340451
H         0.10176520070177   -1.68121320207643    2.35122344832889
H         1.32689538011752   -1.25865518284723   -0.07410379389873
H         3.21061582780990    0.62261603374979    0.48800328533757
H         2.20824726223202   -2.29777883736049    6.27238468802592
H         4.87986147228383   -2.25143648268490    6.77451422394455
H         5.76836644046581   -0.09058016930225    5.35047552132344
H        -2.24978303338539   -3.00805572365925    4.82517002097999
H        -1.67716129245600   -2.30227487695498    7.40143672439709
H         0.44343071781022   -0.60536424538003    7.12923656561640
H         3.82210453732079    5.69490604400924    0.04088486359986

