54
CSD_code = PZBMAL | q = 0 | S = 0 | Stoichiometry = C21H25BMoN4O2 | MND = 7
B        -1.57700065023730    0.04752852305761    2.89521553130154
C        -3.46256941034104   -0.52644417972561    1.12912341572864
C         2.48196419847391   -0.85233453473438    0.13985914544354
C         0.64713776926268    1.54730378971233   -0.93334330103612
C         0.95304947129127   -1.02588820384404   -0.51883648161839
C         3.09995748159999   -0.10278941747217    2.55233095760196
C         2.70514256695305    0.72142795092300    3.61075961656395
C         3.09818723434498    0.45009571686379    4.90573071847725
C         3.89620936767516   -0.65052905605147    5.17664539457997
C         4.30241672638042   -1.46946968413425    4.13827070607988
C         3.91284372599828   -1.19911959209235    2.83824546482804
C        -3.49064993167057   -0.56749810197002   -0.25339425780663
C        -1.56609329733707    2.62464542647051    3.51073854856762
C        -0.99511028349959    3.74659784073355    2.93388768025323
C        -0.27553372754226    3.25412994892913    1.85213547344515
C        -2.19934965177351   -0.22531092687028   -0.64055307809199
C        -2.60670368712791   -0.25515350772490    4.11435899390982
C        -1.96324041642747   -0.24089213199395    5.50364346254452
C        -0.19054559150751   -0.82325768827916    2.90290580796939
C        -0.39239639083283   -2.32115089015508    2.69717090238272
C         2.65260695271237    1.51943357425539    0.66602188062236
C         2.67334469864265    0.20954085791043    1.17674028723135
H         2.66327724212641   -1.85522837138006    0.54054405598719
H         3.10371178247768   -0.68518889312691   -0.74846474210704
H        -4.23996888845507   -0.72077169470070    1.83957451978255
H        -4.32193253757833   -0.80949679962514   -0.88265449154961
H        -1.77840801020592   -0.14000438605321   -1.62479725618736
H         2.06501149260839    1.57507382016342    3.41600013759487
H         2.77401143188948    1.09449964460971    5.70987813175379
H         4.19856098589592   -0.86604148713772    6.19018446840508
H         4.93069522829133   -2.32496709729779    4.33843589125244
H         4.26194733080472   -1.83747352218768    2.03877195081344
H        -2.20811109027081    2.54874400305892    4.36408792779975
H        -1.09134059511580    4.76487643734149    3.24978254155918
H         0.30812178862883    3.78250971483578    1.12041400922685
H        -3.42996964626326    0.46404328794490    4.10665479554082
H        -3.06365652176789   -1.23696518292314    3.97368415051617
H        -1.43836523463005    0.69455717961921    5.68456586512051
H        -1.24518965393726   -1.05126729725925    5.59971223986496
H        -2.71506720023646   -0.36501597965394    6.28140861716772
H         0.50357585685300   -0.48637060945341    2.08495941951031
H         0.36659623975688   -0.66943090034254    3.83231452363748
H         0.55757199249915   -2.85622868787801    2.71982761741491
H        -0.87527631727548   -2.52172192529262    1.74068131369332
H        -1.02387090377926   -2.72491958130776    3.48574583262487
H         2.86430096019945    2.33343657953893    1.35353355545424
H         3.04602518799889    1.69935853847264   -0.33108190030838
Mo        0.58759202180947    0.49494335948903    0.66695157732971
N        -1.46081852830970   -0.00061822072180    0.43885228138785
N        -2.22935191543110   -0.18690912716450    1.51065776253214
N        -0.40109611975523    1.93151211939575    1.80123567801181
N        -1.18486399048465    1.55368197750334    2.81262445422755
O         0.74142481003658    2.14740014419494   -1.90560429037765
O         0.72999564658134   -1.84948275646748   -1.33053750666039

