66
CSD_code = QABBAY | q = 0 | S = 0 | Stoichiometry = C35H26IrN3S | MND = 6
Ir        9.00182309393577    3.96341343958001    2.02193415781224
S        11.18968371729927    5.11547925384462    2.49436828481052
N         8.57726677351453    5.93572790915551    1.18181388590187
N         9.94758359427347    3.20975061860896    0.43100478218685
N         8.02615225158559    4.64125314187565    3.64516478706820
C        10.95063844250765    6.39990125910993    1.36963037525521
C        12.04702547040799    7.17704186346633    0.97815859237755
H        13.01414649568484    6.92879703904423    1.38974454507072
C        11.90418071282657    8.20897035349973    0.08221459269750
H        12.76638361008076    8.78714335247251   -0.21654021894411
C        10.65366272794195    8.49444137522460   -0.46036712419019
H        10.54342282254403    9.27908019265126   -1.19375773510011
C         9.55575333170184    7.76387862568850   -0.06758417351111
H         8.58487791011228    7.96264919474665   -0.50174429546332
C         9.67552677357728    6.72423263554797    0.86046784907751
C         7.40027632990321    6.44254526605997    1.33033601304786
H         6.57240746791170    5.73892046285508    1.32008851234539
C         7.02754279281054    7.82547609019024    1.58121437658571
C         5.75563075889370    8.26677825499179    1.20680699493537
H         5.10022329254190    7.59278883040447    0.67288892508114
C         5.34562807752965    9.55403696476625    1.49229903023980
H         4.36659962726416    9.88792020117489    1.18076550026703
C         6.18380791131516   10.41389465503065    2.18385615659915
H         5.86236145391237   11.41968873113822    2.40948127508373
C         7.43340988935589    9.97463134970248    2.59484920507479
H         8.08180348426631   10.63482841489321    3.15177330519607
C         7.85671615404855    8.69654813076578    2.29501930940450
H         8.82658366384832    8.35927196503443    2.63016158712344
C        10.03857914194390    3.80945618826896   -0.75550759837527
H         9.47428041966908    4.72274577347829   -0.88378937478400
C        10.80956393797586    3.32373707151280   -1.79196556472222
H        10.85170296412495    3.85681968889607   -2.72814511215152
C        11.52377505968181    2.14888288939311   -1.59599469137794
H        12.14437199718934    1.74319898129474   -2.38055500514096
C        11.42086366982179    1.51021584123799   -0.37707914263002
H        11.96147842796907    0.59556803427234   -0.19671089046180
C        10.62328821405344    2.05049135098966    0.63134656754444
C        10.43371240109853    1.46908747710426    1.95028437260600
C        11.00776235203844    0.26808895585686    2.36780356359926
H        11.64435528157200   -0.29722734330310    1.70307930640889
C        10.76678626110854   -0.20575435876046    3.64009214426213
H        11.21166347137234   -1.13491620908295    3.96524537118920
C         9.95289118573664    0.51496422530431    4.50145531350962
H         9.76321678980218    0.14198266006077    5.49820662954134
C         9.38308688072051    1.70865208220588    4.09305201565608
H         8.75267436298100    2.24801090532607    4.78695279739872
C         9.60715678022389    2.21443759125987    2.81779343780593
C         8.56395813495856    5.43688592967308    4.56785833263449
H         9.62276221336027    5.63839018324724    4.46544541656397
C         7.83940782273698    5.98557647394020    5.60717494723114
H         8.32479451558218    6.62944189500468    6.32259499110398
C         6.48682801054856    5.68865260994027    5.70414873030949
H         5.88650742227199    6.10030933398648    6.50136298912893
C         5.92425254668437    4.85295240460852    4.76022265658051
H         4.87695414878917    4.60366000782502    4.81374213627389
C         6.70839697357505    4.33360092380603    3.73091308063382
C         6.22612967552315    3.45691320022293    2.67240827324659
C         4.91409613646067    2.99111631592034    2.58168228363117
H         4.17928687642477    3.26861568389964    3.32330130736450
C         4.54501355909623    2.16638667914238    1.53923991175102
H         3.52963916850133    1.80451779569993    1.46901658974905
C         5.48245421048750    1.80059028053143    0.58467586020382
H         5.19332437363390    1.15073642968233   -0.22928395865558
C         6.78610779531147    2.25986010966666    0.67105703220205
H         7.49676113655244    1.95244796471283   -0.08441595798865
C         7.19199704882611    3.09721440164844    1.70544274212586

