59
CSD_code = QABFUW | q = 0 | S = 0 | Stoichiometry = C28H22Br2F4P2Pd | MND = 4
C         1.69812497586429    1.65154371909742    0.20942969642372
C         1.34216983731527    0.85334033440582   -0.79085036558881
C         3.32584715340408    2.12086902661965    2.54818290500379
C         2.50830584320084    3.10730690289977    3.09362176507779
C         2.48451161450536    3.28980576011743    4.46332554237590
C         3.28182600236527    2.51086902775496    5.28772722236202
C         4.11493485828713    1.54827573956781    4.74334737734524
C         4.13950199948005    1.35257752960423    3.37455000893855
C         3.77586137808385    3.51336628238840    0.10251605987788
C         3.40291055110891    3.82546885884004   -1.20187254951431
C         3.71691067773041    5.06191604828377   -1.73154908143560
C         4.41595796057631    5.98533276000229   -0.97116077049678
C         4.81139147278543    5.66694292133750    0.31713964825930
C         4.50012897479840    4.43152214243702    0.85470301435477
Br        5.91717958899521    1.31550452762001   -1.45397400581530
F         0.75020420868642    2.38680106656368    0.81137755022151
F         2.29421793323365    0.13766324525933   -1.43068166972009
P         3.44132112950334    1.84995472021831    0.75976620084725
Pd        4.47920843241298   -0.00002361553180    0.00008749329577
H         0.34678726333533    0.67806904541532   -1.17020917085566
H         1.89728824797970    3.72790199747339    2.45495393670473
H         1.84189138468575    4.04601801936693    4.88924754811584
H         3.25564609014536    2.65956520351557    6.35703507236347
H         4.74263207614714    0.94735407725311    5.38386386959662
H         4.78774387971131    0.59716268554884    2.94333204795720
H         2.87941320996518    3.09491367169891   -1.80524743633479
H         3.42424214677323    5.30197642798762   -2.74253761056497
H         4.66318268864642    6.94995769694468   -1.38825377484801
H         5.37084080054356    6.37967749392161    0.90465652005629
H         4.82017359710997    4.17629446218229    1.85583531806442
C         7.26016077044675   -1.65135925528761   -0.20949582778456
C         7.61599674997606   -0.85327735876238    0.79092299762797
C         5.63244441160750   -2.12078502928078   -2.54812426842752
C         6.45021464524264   -3.10694552103058   -3.09372455585157
C         6.47407697860223   -3.28919103748160   -4.46346183311661
C         5.67660049077895   -2.51028641547434   -5.28773402317293
C         4.84324906870571   -1.54799099959967   -4.74319686295820
C         4.81862235994098   -1.35253159464157   -3.37436606118215
C         5.18246994592156   -3.51355024466630   -0.10254795427935
C         5.55513880175601   -3.82555191162136    1.20194782745819
C         5.24132652280149   -5.06208233711254    1.73153635638287
C         4.54276588523428   -5.98569742466626    0.97094183460814
C         4.14762452015737   -5.66742625364237   -0.31747481420866
C         4.45868266579049   -4.43191230742416   -0.85494517401978
Br        3.04107121659247   -1.31587793283172    1.45416991567646
F         8.20812530197015   -2.38665916056490   -0.81130585691929
F         6.66378141111167   -0.13817976218604    1.43116344515831
P         5.51693825639221   -1.85007089047142   -0.75968632471996
H         8.61128827082018   -0.67831920156576    1.17066232259578
H         7.06135007557373   -3.72751760895082   -2.45514929350945
H         7.11689237903392   -4.04516687925339   -4.88950713429870
H         5.70286413141081   -2.65875055172577   -6.35707205205179
H         4.21543464514230   -0.94709225175448   -5.38362070776651
H         4.17021767053516   -0.59732528313587   -2.94301932117451
H         6.07827946395896   -3.09485397220527    1.80545984243754
H         5.53375455873773   -5.30205600946800    2.74261436401842
H         4.29567065626011   -6.95038203655055    1.38797299652508
H         3.58852502343798   -6.38030862232219   -0.90514521407796
H         4.13887714467972   -4.17677992511752   -1.85617698503719

