59
CSD_code = QABGEH | q = 0 | S = 0 | Stoichiometry = C28H22Cl4F2P2Pd | MND = 4
C         3.02071421108625    7.68376487535288    7.74993953460439
C         2.10802221633807    6.79016062443929    8.11798756806276
C         5.67080256106523    8.25332686461224    6.73620256877248
C         6.36468692379390    7.52995026165686    5.77077637853306
C         7.06116868385664    8.20019114722102    4.78058213514112
C         7.07016571244497    9.58508200848423    4.75741249836859
C         6.39697042872757   10.30512642257118    5.73287902557227
C         5.70284817730171    9.64540830967034    6.72942138720506
C         5.17130022858487    8.26259344109444    9.52042031781586
C         6.52154388285163    8.42095247607739    9.82450625296817
C         6.89709907896956    9.08425947924953   10.97568686048125
C         5.92881278450048    9.58726932164952   11.83118617444767
C         4.58641570520554    9.41992064528591   11.53680798615193
C         4.20203748552200    8.75264510701524   10.38655543029621
F         2.51190030001398    5.64918950467219    8.72168343025455
P         4.79822421004694    7.31931769190704    8.01758407577400
Cl        2.54337457743714    9.14162499780844    6.99445843116095
Cl        6.20573139693995    5.06911084566007    9.86456661284470
Pd        5.05402630018610    5.09681757599677    7.87324531014940
H         1.03688218388222    6.83905009846078    7.98923494218352
H         6.34716113667364    6.44213512389001    5.79911832506518
H         7.59598211474486    7.64201024256650    4.02681139456438
H         7.60931666762471   10.10816852111405    3.98126391820810
H         6.41630732474751   11.38496656602035    5.71773878403491
H         5.19167692430345   10.20340023543045    7.50143785632939
H         7.26551210079613    8.00834984915221    9.15449610113496
H         7.94383203378211    9.20418615625119   11.21211807880629
H         6.22193150820137   10.10391846098782   12.73309920413955
H         3.83301100477530    9.80538650834026   12.20811088836332
H         3.15290128132297    8.61501869614586   10.16429890373682
C         7.08675388139361    2.50952947759053    7.99372557590728
C         7.99992420050887    3.40303393405295    7.62658618351263
C         4.43682450014945    1.94008321982800    9.00705230961901
C         3.74366711272383    2.66316343185315    9.97323542795014
C         3.04718027854648    1.99264343618703   10.96324501117723
C         3.03737933888961    0.60774792500783   10.98546834489122
C         3.70984362967592   -0.11200481861104   10.00928246029878
C         4.40407236749395    0.54799847973759    9.01298678104092
C         4.93632583767931    1.93175386976966    6.22275353374835
C         3.58608839485904    1.77295877271890    5.91897210826246
C         3.21053793584634    1.11056830582396    4.76728098871150
C         4.17882990548518    0.60895066351380    3.91097602707625
C         5.52123009995757    0.77681101256737    4.20504756472359
C         5.90559374193278    1.44315983833502    5.35582713826725
F         7.59680735677804    4.54447354800798    7.02332093650305
P         5.30935225002042    2.87449880925474    7.72587572346813
Cl        7.56341169709154    1.05086214431592    8.74810674263744
Cl        3.90313144702202    5.12451591266251    5.88079936467819
H         9.07101173609792    3.35356922603798    7.75559678168835
H         3.76175900864356    3.75096317902693    9.94562176459455
H         2.51298143662404    2.55061890745873   11.71760633960306
H         2.49818122118681    0.08443898393212   11.76143953912084
H         3.68983552981452   -1.19184565029950   10.02366306942282
H         4.91464776224987   -0.00978128831813    8.24042309699117
H         2.84210878943436    2.18452770999656    6.58961300697914
H         2.16379085017136    0.99025428779503    4.53111178124355
H         3.88570463776660    0.09298212247276    3.00868183006582
H         6.27464236150545    0.39244243021776    3.53312276784922
H         6.95472354472341    1.58128007028294    5.57784742479492

