59
CSD_code = QABHAE | q = 0 | S = 0 | Stoichiometry = C28H22Cl4F2P2Pt | MND = 4
C         7.71724060106345    7.38154966803253    2.16297506910741
C         8.80683335691589    7.34722192367358    2.92228878999335
C         5.73337557698930    9.24582647924337    3.00816187275253
C         6.72422099806968   10.21685759210754    2.93490964887172
C         6.38374983116650   11.55400257478037    3.04495717600533
C         5.06404231632558   11.92424435816879    3.24058232717291
C         4.07597312010663   10.95569834736700    3.32859746785559
C         4.40745861962653    9.62001323260692    3.21558565668774
C         4.93167288316687    6.87747783816800    1.67133471873405
C         4.28096464984923    5.66655365533283    1.88123149921013
C         3.40148716370214    5.18456382592395    0.92817480420425
C         3.16962579900898    5.91032093187999   -0.22845951659991
C         3.80588728472592    7.12601361999102   -0.43021527743841
C         4.68241185338087    7.61743384384070    0.51848177664353
F         8.67141048452572    7.42626092873992    4.25536501006289
P         6.06627306808871    7.46376383250702    2.95194183517245
Cl        7.84621438351065    7.29564183076675    0.45992765625315
Cl        4.88509045138144    7.88631387880706    5.99974568096323
Pt        6.01237119911310    6.20467380962340    4.84131645097985
H         9.83473353393552    7.25659620260915    2.60387614981885
H         7.75690784574615    9.93144871216235    2.79173591041478
H         7.15412020796427   12.30867891392676    2.98321716467005
H         4.80532132162161   12.96876194767537    3.33156688685830
H         3.04819098527886   11.24331663870131    3.49253665049611
H         3.64733775903476    8.85436505206335    3.29530514225433
H         4.47140446252672    5.11078306090484    2.79300439266099
H         2.89766991810641    4.24325823023009    1.08842680562640
H         2.48594651654739    5.53277217383849   -0.97462910427606
H         3.61546765654712    7.69318698715716   -1.32949983617174
H         5.16982946057293    8.57131620596259    0.37112516960285
C         4.30699868351115    5.02785122271911    7.51964242252636
C         3.21743518737129    5.06204560113070    6.76027939440873
C         6.29084574116565    3.16357866136630    6.67448397353956
C         5.30002785967907    2.19253155229792    6.74797199273028
C         5.64051129548810    0.85537915993438    6.63803827604007
C         6.96020398860018    0.48513835470898    6.44230582239167
C         7.94824273551994    1.45369405953797    6.35403848855828
C         7.61674864023760    2.78938806299866    6.46694041352575
C         7.09255859348966    5.53190421878618    8.01132405194725
C         7.74324694377803    6.74284672047464    7.80148936712109
C         8.62266715497108    7.22482830219639    8.75460383369642
C         8.85448950359827    6.49904421931874    9.91122989320329
C         8.21825204399190    5.28332894367726   10.11291998751801
C         7.34178347775321    4.79191731423239    9.16416657786915
F         3.35294029669934    4.98291677551308    5.42720901330150
P         5.95797464957966    4.94565206792718    6.73068707715735
Cl        4.17797933564731    5.11397782356994    9.22266276358390
Cl        7.13918742847219    4.52288400575885    3.68278181230079
H         2.18951590131666    5.15269686652176    7.07861892255621
H         4.26735356259091    2.47793376694306    6.89125002370476
H         4.87016215539354    0.10069746863842    6.69995566692225
H         7.21893543090320   -0.55938547440160    6.35142163935103
H         8.97600792497717    1.16607127075443    6.19000151631804
H         8.37684680586730    3.55503259765364    6.38706245156211
H         7.55285629955752    7.29861998527513    6.88970787837324
H         9.12648646797121    8.16614257473672    8.59439935952693
H         9.53812494829049    6.87658707100169   10.65744284454341
H         8.40862599955529    4.71614755790304   11.01220955875432
H         6.85435763542344    3.83803295203257    9.31148699838146

