71
CSD_code = QABKUB | q = 0 | S = 0 | Stoichiometry = C29H36N3OPRu | MND = 5
Ru        2.85705770911582    5.28849467259275    5.51390259471069
P         4.38592577231318    3.98531434194607    4.29627149135081
N         2.26873379989251    3.86313963164081    6.90383951069798
N         1.23953574194245    6.00780296546606    6.19427482896918
N         2.31011627953908    6.66481604088279    4.04803115108574
C         1.27110567405880    4.24439886219602    7.69571769120515
C         0.65602063740647    5.46245288939025    7.32323319167592
C        -0.44218894161384    6.07423938856691    7.91654223079860
H        -0.87823944421536    5.64460877688822    8.80511538266759
C        -0.97831315595922    7.22545419013492    7.35738102170773
H        -1.83128584204468    7.70396593274209    7.81360726362195
C        -0.42439601538158    7.74710183167760    6.19575578045892
H        -0.84799236095373    8.62712979225732    5.73715265121197
C         0.67518859850334    7.12799878273090    5.61451869923974
C         1.31489652685546    7.47081582611383    4.39830391405040
C         2.81626166903102    2.58009847879386    7.07263823911290
C         2.24939121819622    1.51236452162009    6.35966592705431
C         2.79510553689599    0.24504184154347    6.49309789730923
H         2.36393715937197   -0.57713705227764    5.93930568121284
C         3.86987799402617    0.02198546158130    7.33506104535059
H         4.28267168939056   -0.97076225033688    7.43467281839946
C         4.40707542708250    1.07236230846297    8.05766689179655
H         5.23694625987891    0.89650409872993    8.72725422462151
C         3.89081489071261    2.35544005135148    7.94490158247011
C         1.05906967575574    1.75773079721497    5.48210190714829
H         0.15327062332488    1.83125365326319    6.08546268637836
H         0.92825195354011    0.95201428532072    4.76342303278453
H         1.17580203325631    2.70682554709465    4.94714924236701
C         4.45730830039517    3.48945302307837    8.74040796538990
H         5.43629991547798    3.23418535150337    9.13792047618766
H         3.79960656691173    3.73573351015731    9.57422940303395
H         4.54067155185964    4.37860395650256    8.11339195611894
C         0.78410054041394    3.43760226448653    8.86497319162986
H         1.35231161654110    2.51628099642460    8.96717523625359
H        -0.26898197553417    3.18355607354852    8.74111828435498
H         0.88294032792127    4.01370562180915    9.78515549168620
C         0.85028209282531    8.62988639480739    3.56398719711834
H         1.42752352087674    8.70621023813037    2.64582664781394
H         0.95518202294527    9.56033685497666    4.12224419959292
H        -0.20191801385597    8.51300850761927    3.30354585097218
C         2.89979939171918    6.82616004004556    2.78248733540450
C         3.96619100644453    7.71421515494155    2.58507544865055
C         4.52099015246890    7.82550307814505    1.31888900351373
H         5.34359940523562    8.50856354785128    1.16280772175077
C         4.02994569435730    7.08597347195468    0.25781695468059
H         4.47029015610723    7.18723886054869   -0.72293346835272
C         2.96849043512647    6.22042238116353    0.45515104759031
H         2.57768152396429    5.64734868362748   -0.37381628680014
C         2.38804564660057    6.08451507562122    1.70662710534361
C         4.48430267573921    8.52901466032102    3.72846643673572
H         5.46288301025926    8.94263744753896    3.49781335181981
H         4.55381922028644    7.91098245697787    4.62530861510464
H         3.80580115250323    9.35302736572319    3.95009049768699
C         1.22487277276660    5.16602533001162    1.92670174161002
H         0.29331653864356    5.73246097398887    1.96335954509538
H         1.33420202473827    4.65047051892416    2.88777870203979
H         1.14964385182110    4.43188636465232    1.12780548512602
C         4.23516507917755    6.18414580777015    6.40182866474420
C         3.87198871080273    2.50034532018411    3.32811977135444
H         4.73114773724048    2.07285597274759    2.81224513356087
H         3.11807610317941    2.78468469710324    2.59643801726729
H         3.45288149705489    1.75957379607571    4.00565505174582
C         5.43235113402581    4.78920705736983    3.01058467795770
H         5.86250465277971    5.70054270512665    3.42207475120250
H         4.83067833908740    5.04742930913923    2.14315032049277
H         6.23096901186465    4.11275334003944    2.70759861429972
C         5.75199452438489    3.21557450126558    5.26216536170367
H         6.43128850179354    2.68039899343310    4.59936410033010
H         5.34405232623507    2.52405248539756    5.99518863075380
H         6.29358156252120    4.00292852267682    5.78517722367541
O         4.86097858430340    6.87224361896299    7.09655596442851

