36
CSD_code = QABMOV | q = 0 | S = 0 | Stoichiometry = C14H15Cl2NO2STi | MND = 8
Ti        3.13681069362435   -1.18788839917545    2.55900214650545
S         4.35163416485953    1.12157715787215    3.38390023104580
N         2.92844080244643    0.69844162752737    2.76772986188526
Cl        3.23043865356227   -2.31928751472313    4.42891898986384
O         5.09634771526443    2.02906490491618    2.56133202277594
C         4.00677695038534    1.85906845537284    4.96778801354385
Cl        4.83796043839296   -1.86323468739983    1.38717746432552
O         4.90200122762715   -0.20834317527695    3.62771876942093
C         3.14622897440660    1.17709013385084    5.80895029240782
C         2.85482324099258    1.71269929870369    7.05166677817884
C         3.41552178933817    2.92158739529155    7.45334502453517
C         4.27391368601338    3.59076059477918    6.58406748411718
C         4.57203114492312    3.06375557920533    5.34019574856746
C         3.11128661613731    3.50461925824755    8.79786999016128
C         2.17104438589769    1.64902633903827    1.98002145321227
C         0.83612764686032    0.97544672661317    1.59600685251698
C         1.10005195586461   -0.50122243086863    1.53408150839044
C         1.86902936846986   -1.16648771597559    0.55385443590966
C         1.99073674562882   -2.52205855515731    0.93713719207803
C         1.33802462856625   -2.68760443214296    2.17319032633998
C         0.80892884635213   -1.43127341319806    2.55903734107034
H         2.72384228401553    0.23324949742027    5.48131986083412
H         2.18917933869432    1.18446686727557    7.71789623866376
H         4.71260575458615    4.52932724075776    6.88916692416659
H         5.23548226261705    3.56246897665235    4.65148233985892
H         4.02783696262080    3.61552012245398    9.37508380594937
H         2.42492801134993    2.87193101431549    9.35318542326198
H         2.66768053540992    4.49319595035653    8.69021000909003
H         2.74811102929895    1.91129009599123    1.07902755479126
H         2.00854369970837    2.56827039381295    2.56054755794568
H         0.08423341804431    1.17957420001811    2.36127603307427
H         0.48202623708227    1.35990550742478    0.63778006566980
H         2.20169606431074   -0.74720049044990   -0.38698262857384
H         2.43467918130834   -3.30888431051113    0.34110550925227
H         1.18002393327719   -3.62584497649089    2.69077290780807
H         0.16907161206196   -1.25340723652693    3.41483647135645

