53
CSD_code = QABMAJ | q = 0 | S = 0 | Stoichiometry = C20H23O8PW | MND = 6
C        10.34880638917827    4.38075941136065    1.82271929377935
C        10.52825939566561    5.81133831532606    2.40633693699835
C        12.02921565685650    5.85587424716029    2.63205635547225
C        12.38730154544811    4.64375380812463    3.06266542116897
C        11.18625957237301    3.72184745835448    2.95863203787545
C        10.70167148823393    4.16839619533990    0.37503744602690
H        11.72962769271884    4.47480328121198    0.18543772554426
H        10.04005738163455    4.74372344711089   -0.26909759585493
H        10.59900958217807    3.11395817296560    0.12161509647040
C         9.90712739020728    6.95579503025527    1.64175334947384
H         8.85743105267367    6.74696112607513    1.43429472529300
H        10.42454930561319    7.10339608153842    0.69636194630755
H         9.95868329773888    7.87421038946401    2.22111911673191
C        12.80665184361781    7.11755996786662    2.52347241000577
H        12.35441818930337    7.88890828605830    3.14641184312474
H        12.80083570298789    7.47806546817447    1.49556979526497
H        13.83794600865598    6.97502852710444    2.83388212509016
C        13.71743234119219    4.19106017813967    3.55756897156397
H        14.41011026713397    5.02629378415286    3.61244757067658
H        14.14389189929938    3.43381851107443    2.90104311076964
H        13.62138057468757    3.75739155300732    4.55252990666722
C        11.59495255914080    2.26365832104711    2.90019233232122
H        12.22310208857582    2.09445567119813    2.02787856533773
H        10.74698909568376    1.59442758521784    2.85202320393724
H        12.16733264649404    2.01432542366955    3.79114324452014
C         9.99409769714727    4.08130201258021    3.92668025523779
H         9.92002183921236    3.61140601649410    4.90296913295541
C        10.00954416065875    5.60007610940808    3.88511082213535
H        10.75975042579133    6.01929195103073    4.56929571318071
C         8.74055935326045    6.28802704026606    4.32618834254117
C         6.74135506266725    5.95147367478557    5.55955400763308
H         5.84585075072827    5.91743657492598    4.93010918106756
H         6.96155837357106    6.99677783797865    5.80103582369445
C         6.54895546454657    5.11473342961549    6.81204664330923
H         5.70921671864746    5.50234714158082    7.38131443495378
H         7.44194487775460    5.14740273131570    7.43123076593947
H         6.34721957276971    4.08145582919619    6.54313839760398
C         4.68635910664041    4.95454973158896    1.00619469856255
C         7.23861285984483    5.24581468921139    0.01565026774435
C         6.28359166589195    2.77321640094524    0.85030953405696
C         5.69144959180723    3.75356729235002    3.38465293071872
C         6.46045751931203    6.44304500505168    2.40405578660807
O         8.77026750763857    2.19722906480541    2.46102715316368
H         8.04826346049683    1.84592407955917    1.93189742139787
O         8.60427309205173    7.48298386985771    4.35740866113920
O         7.84448929553296    5.42001078367147    4.81314985834217
O         3.64886856665304    5.15567304523085    0.57029068577258
O         7.57781591308690    5.61868226894374   -1.00950272761075
O         6.06465081805904    1.80296126047886    0.27845261545600
O         5.21706623959219    3.22038951935078    4.27605837053500
O         6.26298804337784    7.54570112379495    2.61129964902718
P         8.73811879813679    3.80959421370286    2.56622955575420
W         6.48311025785902    4.54661706132800    1.72675708457284

