60
CSD_code = QABMIP | q = 1 | S = 0 | Stoichiometry = C30H26N2NiP(1+) | MND = 7
Ni       -0.90648084128396    2.90449268176434    4.68489058173407
P        -0.33173385200263    1.73097095066102    2.94199775618554
C        -0.91099880692055    2.56156100326604    1.42919337410503
C        -1.44427156085345    1.88564916925971    0.33962053106179
C        -1.85046746171602    2.60023893681559   -0.77549088706103
C        -1.72786126495023    3.97994677256700   -0.80655673528048
C        -1.20261096161925    4.65756635729571    0.28373880062102
C        -0.79922698791723    3.95068089299707    1.40008286253424
C         1.41055584112424    1.35390768950716    2.59779422218696
C         2.01208087736440    0.30290715767091    3.28890497974025
C         3.34499035988718    0.00927838185361    3.07374861643666
C         4.08691840062644    0.76748487688730    2.18033168791036
C         3.49357058568836    1.81912935565001    1.50113485097059
C         2.15883697025432    2.11964347172787    1.70989130393883
C        -1.14063115121566    0.10840546371604    2.97626477319033
C        -2.16399877919879   -0.08529517044479    3.89923351985874
C        -2.82438629520735   -1.29870727841199    3.95760339336514
C        -2.46094369053291   -2.32187907357359    3.09603755418696
C        -1.43419680904413   -2.13537073048114    2.18282184951050
C        -0.76803764233759   -0.92474792075910    2.12003750702856
N        -2.49440369920779    3.45518657330583    4.03706466608002
C        -3.44878846106111    3.87286231659814    3.52763452985369
C        -4.58210673877291    4.36288521556204    2.90236204885665
C        -5.50151372034905    5.16932896845867    3.59641752888114
C        -6.61207231416341    5.65158310723275    2.95726180859804
C        -6.85282397440993    5.35119538621232    1.60372000649833
C        -5.92645782723000    4.54391163834059    0.91677209759793
C        -4.81373989521730    4.05689886970483    1.54842994885153
N        -7.94485900805806    5.82960824355052    0.97825033288276
C         0.72146197646033    2.48482015361289    5.78325399069604
C         0.79433684728864    3.91095283216952    5.54820358032164
C        -0.34663625723056    4.46874951788734    6.08676036303448
C        -1.10600596913610    3.40779223707033    6.73871441202837
C        -0.38989659038660    2.21868145835654    6.63631193623659
H        -1.54975812429151    0.81122342678364    0.36370113338559
H        -2.26462760177120    2.07577084113023   -1.62333041764491
H        -2.04568630792897    4.52941574991079   -1.67929777834295
H        -1.11188881420882    5.73281570116190    0.26121994200708
H        -0.40037341836233    4.46439262479296    2.27119196014659
H         1.42633694324633   -0.28582199148110    3.98302261075623
H         3.80755436609764   -0.80944097201884    3.60377224185003
H         5.12838698492444    0.53842499099733    2.01571129989834
H         4.07205043319409    2.40907699735429    0.80667203892543
H         1.69645465416573    2.94007965828742    1.17996659445835
H        -2.42396319881034    0.72864721521816    4.57652924188138
H        -3.61602536448120   -1.45068489159892    4.67531881468081
H        -2.97240133664544   -3.27095926857459    3.14168862186045
H        -1.14820571929003   -2.93857666168741    1.52085721659497
H         0.04577266027926   -0.78344018242564    1.42223906907825
H        -5.32381869882476    5.40388109366893    4.63451648433318
H        -7.31722964419434    6.27047703435777    3.49071556202765
H        -6.10415643516809    4.30935855462511   -0.12172963640686
H        -4.10527113431077    3.43845394412483    1.01836039695468
H        -8.61107402252418    6.39623398544103    1.47177267652110
H        -8.12499176215104    5.60647387610541    0.01592744494805
H         1.53725966028448    1.80062508911825    5.59464346781387
H         1.62397015381054    4.42391533389245    5.09070621991475
H        -0.59497533646606    5.51647038549364    6.14125940810091
H        -1.98263551924482    3.57656017751477    7.34535038932465
H        -0.60770471596955    1.28320778181175    7.12397720427548

