31
CSD_code = QABRES | q = 1 | S = 0 | Stoichiometry = C8H16Cl2RhS4(1+) | MND = 6
Rh        2.48566199374461   20.48137061695331    3.67780555769187
S         3.31027365886393   21.58967270758229    5.57950446035226
Cl        2.97500424620617   18.54785247465157    4.79792377125390
Cl        1.72811859347313   19.19541915142308    1.92550613698271
S         4.61084499996061   20.63667277374651    2.70037423858990
S         0.32007855802106   20.63321434362028    4.56283972882319
C         1.83396085998101   22.64517591440418    5.86495041505363
H         1.98983312242987   23.20386765604034    6.78881447946425
H         1.71597443608605   23.33808699334055    5.03138759382740
C         4.52710876138010   22.64625025324905    4.69742401371942
H         3.99882447892375   23.33955943041987    4.04236178637188
H         5.09505689193044   23.20441205217409    5.44297162957905
C         0.64636164197859   21.71087664215812    6.01832625510965
H        -0.27051504076093   22.26018043765858    6.23140410909223
H         0.82852632034906   21.00470863219299    6.83067697213512
S         1.94551691738111   22.51875995059493    2.43728908691031
C         4.33957669372559   21.83940540709900    1.31662640720818
H         4.80274763993042   22.77966455541245    1.61251439728860
H         4.87958912802386   21.42719205442789    0.46368105059899
C        -0.50730159315177   21.83360144445570    3.41864685939900
H        -1.49786789330659   21.41878003370151    3.22970781064985
H        -0.61046775298096   22.77361970815643    3.95888404041336
C         0.21781994755963   22.02376569308338    2.10073235428809
H        -0.25910851298055   22.80901249220538    1.51298358526127
H         0.26255232211065   21.08662626344746    1.54131918262327
C         2.88167226960343   22.02773516635931    0.94530989994042
H         2.44432958929899   21.09058752362202    0.59362622068962
H         2.77745497300967   22.81432221722411    0.19691474032857
C         5.45070734440045   21.71278226789110    3.93431202153635
H         5.91910647809134   21.00573147752958    4.62162766277816
H         6.23295892671670   22.26259366517318    3.41125353203872

