79
CSD_code = QABYAT | q = 0 | S = 0 | Stoichiometry = C29H47ClHgO | MND = 2
Hg        4.20684845128678    4.22507640170299    9.64935011228994
Cl        6.46958404951807    4.87429168390737    9.42970470447151
O         3.14645900975917    3.91704284540359    7.21258991205239
C        -0.85969743560557    5.50036358435615    6.28417659859292
C        -1.50464237522682    4.12732688495696    6.45895628201271
C        -0.38194954296013    3.25701851944875    7.01786527256628
C        -0.13694339471247    3.45602134485568    8.51833124595295
C         1.36766852490676    3.22984358762593    8.70671797069307
C         1.97483787869985    3.87418629812971    9.94293972228747
C         0.90006434622266    3.76083084981294    6.33437954890098
C         1.97010934872027    3.69061197607377    7.38713075724821
C         1.33715709282561    2.98035867834434    5.07562218489602
C         1.80934882936675    4.06849613817313    4.11945913022690
C         0.73889054119352    5.14089509617065    4.32647721438139
C         0.59478778186155    5.23584767806820    5.85802771813470
C         1.04266757599328    6.39811737812275    3.52383614278675
C         1.17465206246093    6.04763925244582    2.03335813336397
C         2.24047939310216    4.96968145053193    1.79063159105431
C         1.86274714856520    3.73548417401755    2.64339388915025
C         2.81400052478325    2.65386047948644    2.15341158378279
C         2.89636829482595    2.92752690858909    0.64104756909245
C         2.24849860789036    4.31503542559337    0.38356954500714
C         3.63124179326616    5.51809429164678    2.11998871329156
C         1.52808402997142    6.27845509384637    6.46539431649217
C         2.93995415191027    5.05989844945291   -0.77225484378742
C         2.34760375997889    6.44903373578185   -1.00821180883568
C         2.82085139186256    4.23782429116739   -2.06791894716387
C         3.85985663447702    4.61865941655518   -3.12187861504650
C         3.71468019832326    3.76299682725505   -4.37861528733629
C         4.80715972147325    4.00941532669196   -5.42498116929882
C         4.69653575451430    5.40066797582709   -6.04411614829501
C         4.72534317506833    2.94788978850426   -6.52106252374508
H        -1.38037908645503    6.10559318389147    5.54307205978730
H        -0.87887205486698    6.04678526993236    7.22768393667446
H        -2.37057096868766    4.15528476697588    7.11897719997502
H        -1.82639481184804    3.73488167225217    5.49343754616558
H        -0.54873075458638    2.19717685927133    6.81058516687739
H        -0.38933746310055    4.47608253762162    8.80825508827891
H        -0.73185609465701    2.77464790208567    9.12431753687976
H         1.56841247222968    2.14997482635457    8.72814375543477
H         1.79962092808604    3.25799865463814   10.82408117183360
H         1.51637178668398    4.85230572238846   10.11178319502177
H         2.11521991577323    2.25279237143307    5.30357893752026
H         0.47990966556965    2.45175768918782    4.65418912672671
H         2.77946484193636    4.42546482332814    4.46898831530733
H        -0.20234486539195    4.73037228326840    3.93939676759312
H         0.23724087131160    7.12654680475630    3.64657941671829
H         1.96486863077553    6.86147811403472    3.86991423739844
H         1.41060484701047    6.95974052326017    1.48795661218644
H         0.21064068434326    5.68361339637712    1.66788198423303
H         0.84999100959536    3.43912857416729    2.33967955655425
H         2.43982251062354    1.65299731274710    2.36670067758007
H         3.78706509218273    2.75376072013577    2.63318473627332
H         2.36811662359882    2.15126277695407    0.08839653075734
H         3.93290216732296    2.92527368799253    0.30421334984821
H         1.20345992319627    4.16389674402827    0.08870851006284
H         3.80932262395384    6.43629539262942    1.56605748607838
H         4.40557754132041    4.80685435309679    1.85210570756927
H         3.73692426522155    5.74555268642638    3.17566738812991
H         1.48306419577156    6.25003072154965    7.55372852296125
H         1.22993265189450    7.27254949765440    6.13979152770505
H         2.56023432283121    6.10795277124835    6.17127879823880
H         4.00313273452714    5.16678545858829   -0.53686147877265
H         2.70203812565227    6.85507229947510   -1.95211640163538
H         2.63521536335107    7.14555224558257   -0.22697008814465
H         1.26171692311976    6.39713828777525   -1.04721813418825
H         1.81823484702103    4.37073902571119   -2.48134988047182
H         2.94489122984102    3.17810458944458   -1.84710150201163
H         3.75611068975994    5.67145507776488   -3.38429336874310
H         4.86039149346517    4.47726065973727   -2.70520819765079
H         2.73743901335394    3.94767484272693   -4.83140016488819
H         3.74649736484085    2.71005675587099   -4.08615933874824
H         5.78269328086110    3.92381042192957   -4.93236025955081
H         5.45520914798650    5.53293724036111   -6.81250238866982
H         4.83656800567140    6.17661763210344   -5.29634068539429
H         3.71862667879577    5.53365432766736   -6.50263301085847
H         3.76077530457849    2.99611763647345   -7.02242479313778
H         4.84458533350152    1.95094382062854   -6.10262603598029
H         5.50514566781967    3.10263520583459   -7.26338963292147

