87
CSD_code = QABZAW | q = 0 | S = 0 | Stoichiometry = C39H16Cl2F27P2Rh | MND = 8
Rh        6.72647463787011    1.50662995800411    6.33006648562383
P         8.74583914211577    2.45632746081242    6.28294496576473
P         8.35536847889613    2.69305608166698    3.50069474206738
Cl        6.04221259144247    2.86359363069740    4.54032967444346
Cl        6.45196524168441    3.30688600910634    7.79829974660850
C         7.44939721633078   -0.50038650268643    6.44652044494987
C         6.63688951088922   -0.24129775609969    7.61222999486075
C         5.28638598717622   -0.00878758828231    7.16216458026195
C         5.27449623350725   -0.07241776401924    5.74639423929019
C         6.61654905508396   -0.37237938811879    5.29135388739435
C         8.85715695846496   -0.99972873747884    6.43820948481342
H         8.85947229971001   -1.92966571850728    5.86086490366376
H         9.13671639005435   -1.26132273987108    7.46453546056580
C         6.98964354210249   -0.44024149480579    9.04884679334104
H         8.04295473901899   -0.66314281205554    9.18416844433494
H         6.40223430398742   -1.26920726827131    9.44591361054515
H         6.74679231688367    0.44681798813566    9.63220306785838
C         4.11452352497206    0.15020456367707    8.07203306447144
H         4.34438209298401    0.83719287332713    8.88440808656744
H         3.86338791584277   -0.81827105680782    8.50778460998273
H         3.24650090312311    0.52412600221017    7.53628008646061
C         4.07960483595780   -0.00853769486914    4.85734792398586
H         4.33707479380240    0.41549218199114    3.88983701551250
H         3.28740012760054    0.59075770497782    5.29874485954584
H         3.70188188101887   -1.01981535819438    4.69792534460742
C         6.99341150472303   -0.70059397807806    3.88638628722445
H         6.59437488492601    0.03621871191891    3.19145242067923
H         6.57728890320557   -1.67271295710903    3.61857695846813
H         8.07193737308958   -0.73296209807434    3.76379284929554
C         8.83634138552079    3.72932439540563    4.97582247263140
H         9.78466819375022    4.25176885276248    4.87652267005770
H         8.04546985248041    4.44333405874706    5.21783568831981
C        10.10773580574463    1.24955157878571    5.92012179764994
C         9.99621424665487   -0.14646956411113    5.91967197513339
C        11.12127701109464   -0.87778044572844    5.52126098034353
C        12.32801263483645   -0.31103223007252    5.12511963730817
C        12.44181389986307    1.07091648575369    5.20103749484338
C        11.34291955419877    1.81066127279744    5.61476858815010
C        13.46672398112402   -1.21517812707989    4.69620394104053
C         9.43226288463843    3.23610376967213    7.79613478217557
C         9.75337946584418    2.38629706591929    8.84763819072898
C        10.17305268717193    2.85334079711349   10.08202817428472
C        10.28746992746128    4.22617758010768   10.30472870121496
C         9.97595916410614    5.09459968482014    9.26271092957931
C         9.55089807190370    4.60092447539936    8.02794682819539
C        10.74516807731697    4.69019118075813   11.67329952296106
C        10.09613467977353    2.78828494254005    2.71668005666041
C        10.75825612168415    1.58435840397883    2.53684865521789
C        12.01668917858321    1.50375665700985    1.95749328939912
C        12.65689200072462    2.65892524587046    1.51077030480145
C        12.00627375138837    3.87935998008449    1.67052688074967
C        10.74860102188568    3.92766364548759    2.26979684695516
C        14.02295823164480    2.51704180362082    0.87036919901607
C         7.67611330897518    3.89279666806987    2.27189668162626
C         7.14090289654550    5.16082360639562    2.46155851681606
C         6.59205513251120    5.86878354949072    1.39481867594715
C         6.55630278576479    5.33297114914473    0.10823605124561
C         7.07783535824644    4.05720469937190   -0.09195463891599
C         7.61684675393713    3.36892156120963    0.98584778232104
C         5.94115739491529    6.16255249521806   -0.99880674141315
F        11.04239874038308   -2.21023713646615    5.53034429090992
F        13.56366702670464    1.70938505055512    4.88403756989657
F        11.49848994956836    3.13968748546312    5.74371138311159
F        14.49222612065293   -0.55218120997844    4.17645425778293
F        13.93779675843395   -1.90807597546967    5.74635681662909
F        13.06842502370757   -2.10828215563689    3.78833022536037
F         9.63800752150834    1.06713377334711    8.63823573662651
F        10.46228306463658    1.98989884975321   11.05047679074565
F        10.07422220727151    6.40657441251916    9.41645274931734
F         9.26215525272625    5.47342399556905    7.07066456341621
F         9.92935727943905    4.23557242670717   12.63243658338471
F        11.97021282242289    4.22167838088057   11.95023569816861
F        10.79725515713795    6.01012508269970   11.80056183046628
F        10.16255186831805    0.46119451654586    2.96916440868059
F        12.61435012687136    0.32038252568802    1.84596603678517
F        12.56259428373840    5.01316897386350    1.26316535768820
F        10.15996305919216    5.11998778157896    2.42417204747814
F        13.95989037316830    1.73728440723328   -0.21763490718628
F        14.54990517288141    3.67488198814076    0.48423490311877
F        14.89534085442278    1.95058404600671    1.70952891178297
F         7.14589008186583    5.73920780652998    3.65732590684980
F         6.09314924572746    7.08009850194378    1.61367906585097
F         7.06694549524646    3.48270054748485   -1.29022225829375
F         8.11366784369422    2.13518484481911    0.80352130001568
F         4.64231744927554    6.39494476707149   -0.76339176854144
F         6.01750240273308    5.58870124526835   -2.19665018167572
F         6.53843197152047    7.35536757618083   -1.10370128663716

