44
CSD_code = QABZAU | q = 0 | S = 0 | Stoichiometry = C20H13Cl4N2O4V | MND = 6
V        -0.14716276577438   -2.43938956613684    9.47814325197690
O        -0.18841634350500   -2.89086450316529   10.93320918326716
Cl        3.44298494353784    0.51221468572668   10.21518001185500
Cl        3.83647402284895    1.03285176288014    4.88063925739980
O         1.31397038599525   -1.42248647877285    9.55787364468147
N         0.47745921188031   -2.13661529980736    7.14413780836824
C         1.87829026536708   -0.87146602560198    8.53685745394050
C         2.91199826551557    0.06367861516539    8.64034404661630
C         3.50182138641007    0.64182512331150    7.51448959791039
C         3.08588729903881    0.29700262725167    6.25121108517672
C         2.05436971472690   -0.64734415222417    6.05914027766519
C         1.55395456021300   -1.06888448898925    4.81109713129781
C         0.54370037725605   -1.99406182658778    4.76904586312925
C         0.03260099770586   -2.50862776291168    5.97187511667934
C         1.45991930870392   -1.22380010512870    7.21424020661754
Cl       -3.14621164165717   -5.69438381562368    7.48455447461392
Cl        1.18195750411397   -8.87768498737585    7.37269172411613
O        -1.22110570124686   -3.70826818711961    8.68277988795051
N         1.29098999465280   -4.03862540042521    9.11626624066268
C        -0.74813946693345   -4.86325238068116    8.37312720095147
C        -1.46927476745388   -5.91829734559419    7.80785729753956
C        -0.86271139841509   -7.13980433153277    7.50656744502581
C         0.47475912524780   -7.34790081332796    7.75090966991177
C         1.27636468910410   -6.32952390207385    8.30872275931998
C         2.64958565054906   -6.41679788308586    8.61095410952814
C         3.28462780457825   -5.33120993995240    9.15773662137184
C         2.56645839353682   -4.14680977186218    9.39414303377588
C         0.64259188211412   -5.09433072225800    8.60141332181813
O        -1.24671887254878   -1.27212265563514    9.21413336329684
C        -2.28366398531404   -0.54781849507115    9.73149538162177
C        -2.38563663956073   -0.76879486193418   11.24056092674255
H         4.29073484313980    1.36448700364926    7.65126474915293
H         1.97421101161549   -0.65524265669677    3.90650418664694
H         0.13796321060226   -2.33292663783097    3.82893501363453
H        -0.76285165531216   -3.24378986558951    5.96562015321872
H        -1.46363207789179   -7.92658685351159    7.07771320111965
H         3.17960565392575   -7.33610114384784    8.41112142750271
H         4.33298416047874   -5.37244378315834    9.40815650728823
H         3.04956399159016   -3.27821435468528    9.82576251867355
H        -2.12418298116287    0.52186746408106    9.50202228235602
H        -3.21507856907779   -0.87289997917878    9.23299120462271
H        -3.21059596723723   -0.19910531042650   11.65968084172139
H        -1.44651806522638   -0.46639003564723   11.70805389240003
H        -2.53262775613119   -1.83446095861505   11.42817662683363

