63
CSD_code = QACBOM | q = 0 | S = 0 | Stoichiometry = C33H25ClO3Ru | MND = 8
Ru        3.75222791724468    1.68676416026016    3.04873795266140
Cl        1.62755335908487    2.39807396654944    3.87795359641930
O         3.70781807401779    4.23511318041157    5.08905951084777
O         3.07563124760570    2.33167393402680    0.20054674334672
O         2.87538941358009   -1.16660937413457    2.75987747848584
C         4.42874365368151    3.23339481541724    4.55333245994360
C         5.21643095224845    3.35972244305223    3.37945350731840
C         5.93294003249817    2.11377370302896    3.19741826645892
C         5.57738982245407    1.24009955432981    4.28942127828879
C         4.60637779752599    1.90301776896736    5.09837283882407
C         5.41870703805059    4.61467016628324    2.63609127632888
C         4.31935289027559    5.34903701224952    2.19869997563535
C         4.50325704528182    6.53404445254858    1.51267162761764
C         5.78338619666331    6.99659272575405    1.25490427084220
C         6.87969877426300    6.27282083021362    1.69244745250871
C         6.70305791576669    5.08815816791216    2.38329553979891
C         7.05357795115033    1.91873643579882    2.26789814970821
C         6.92421180232626    2.22327970669466    0.91422617767014
C         7.99819968778778    2.08273073733703    0.05988659295869
C         9.22996809856869    1.63498423701120    0.52637281379143
C         9.35433682368413    1.33035096012862    1.87564001182609
C         8.28489094598764    1.46969971451814    2.73948887145474
C        10.38396716006334    1.46788998118457   -0.41283060876911
C         6.19947031617187   -0.06432939445824    4.55453927307899
C         6.36096809900216   -0.99532997135882    3.52979389259371
C         6.96158493832929   -2.21177258790299    3.78056009274399
C         7.42000529716866   -2.53457266309978    5.05353771030375
C         7.26549131635418   -1.59946248644179    6.06924430831482
C         6.66487020953510   -0.37855828745256    5.82879296896272
C         8.03960210965410   -3.87009188564515    5.32547119714379
C         4.05369003448526    1.43148290511253    6.37738249926680
C         3.59613699115610    0.12156835774700    6.51570785015969
C         3.08997485164445   -0.31476957907879    7.72372734082564
C         3.02797631244895    0.54779260674818    8.80681577640845
C         3.47406364239444    1.85134007646193    8.67518092010145
C         3.98535834968962    2.29494337078535    7.46910241923577
C         3.32391547852592    2.05354083410312    1.28201299706763
C         3.19103198902238   -0.06985953603949    2.84106582185625
H         2.81031276019791    3.91427683957184    5.30179387921173
H         3.32034005917602    4.97709466987302    2.38961122487088
H         3.64553134198767    7.09546859150924    1.17354238678284
H         5.92622756866878    7.92010297192101    0.71370273823689
H         7.87935660649896    6.63213138350090    1.49700702455472
H         7.55986325903143    4.53016335677489    2.73209050134527
H         5.96911821914846    2.56238686122352    0.53565033761889
H         7.88087077578531    2.32283987375670   -0.98675361761577
H        10.30284335466759    0.98362500275153    2.25986453628541
H         8.40720748543400    1.24352412832359    3.78871606956853
H        10.39978499030852    2.26698560617295   -1.15074676878484
H        10.29411027569953    0.52169424409127   -0.94724900178529
H        11.32805940814106    1.46416913360404    0.12622153052009
H         5.99513504545107   -0.76034683963281    2.53736337595197
H         7.07207478783711   -2.92574679040009    2.97751307611139
H         7.61937753774233   -1.82855150697912    7.06404759934834
H         6.56150840966531    0.33969970308624    6.62924319414890
H         8.72469406367831   -3.81780707740621    6.16816898651733
H         8.57650860538702   -4.23351540225969    4.45234108110980
H         7.26224682427677   -4.59577187038547    5.56711423564154
H         3.62437996754939   -0.54701811249139    5.66493553215110
H         2.73466073344738   -1.32998093269488    7.81870732904800
H         2.62705777307495    0.20519825750816    9.74902278302543
H         3.42438151359573    2.52895505773693    9.51474856994782
H         4.34159409815659    3.31068181181761    7.37364254416019

