91
CSD_code = QACBIG | q = 0 | S = 0 | Stoichiometry = C31H51N2NbP2Si4 | MND = 9
Nb        6.88257754213416    6.01341230055920   10.66860206640018
P         6.57303843426899    4.81631664406387    8.50189135465260
P         7.20643890649225    5.72853665252140   13.11489247438747
Si        9.40296056439006    4.35842492689110    9.17301910451419
Si        8.94564747045905    3.52270457818643   12.01654601153106
Si        4.41577678891549    4.93994413751543   12.77123931607977
Si        4.89867040469288    3.16588544487411   10.40484930083022
N         8.50288016082155    4.44922110958107   10.63676382592729
N         5.32551736424927    4.52166745527579   11.37167398243842
C         8.18634618948646    4.63277648166675    7.69620505673255
C         7.73881707398259    4.01988759802996   13.42078194976895
C         5.62278162089912    5.82824940762004   13.98589326298664
C         6.11643968572100    3.10729852675478    8.92046019290280
C        10.24940836283744    2.67788838606946    8.83485354054287
C        10.81264823060796    5.66389258905291    9.09529110974316
C         8.76194978757174    1.62581549121592   11.78339013372350
C        10.76196112998085    3.76969698158633   12.60816317517346
C         3.67021804533886    3.47219753421866   13.74408410410187
C         2.92866264533938    6.09159458791367   12.37328508597147
C         5.06078026510343    1.47426236130574   11.29820551958414
C         3.09064804157317    3.19837131141123    9.73964667854192
C         5.36808079256119    5.19759752652430    7.19103816482003
C         4.09512309712425    5.57146468022911    7.61344508716416
C         3.11528020450611    5.88344399349277    6.69083945791053
C         3.40331199863134    5.83587565229155    5.33508640429489
C         4.67056825236822    5.47529885172160    4.90940247554037
C         5.65266028565110    5.15681827720285    5.83230043382336
C         8.41811401748240    6.65419535944882   14.10811377499550
C         9.69211084030083    6.78755050112300   13.56238368416115
C        10.67780218684737    7.47028093632325   14.24877254067896
C        10.39656189131612    8.03463538080629   15.48410216257424
C         9.12924416155083    7.91137750702122   16.02781062746673
C         8.14051666611211    7.22355817262940   15.34427374735600
C         8.16245008606247    7.85228646373313   10.81091426550145
C         7.89095526099093    7.73349289299964    9.41653311026113
C         6.56024628557689    7.77752069360303    8.97339309416470
C         5.52259203226464    7.76710749599659    9.92178426284476
C         5.83705992182538    7.89442188872697   11.30678009794821
C         7.12736542374299    8.64454542392775   11.59220162961684
C         7.07118533205580   10.12840161542100   11.19539980372300
H         8.17750296706616    3.79443713589768    6.99766673612773
H         8.41815981051774    5.54850905799280    7.15150415097426
H         8.15855320117031    3.92492868196249   14.42322702188052
H         6.83955934223020    3.41052469496911   13.34413093052793
H         5.68966348242136    5.33821209509130   14.95791076069927
H         5.35464478790599    6.87402644766831   14.12655912238239
H         5.72065184740684    2.58739986501788    8.04590510577628
H         7.03751892494387    2.62262152195885    9.24312092326798
H         9.54778448818960    1.85300076265705    8.79111994242981
H        10.79255403461363    2.70312412615191    7.89606889390050
H        10.96253466035375    2.46407824800272    9.62085646106572
H        11.73073492973094    5.22859160435709    9.47478772804384
H        11.01048286465151    5.99855446870593    8.08154467543868
H        10.59117185817640    6.53696418802052    9.70031978939510
H         7.93367915846300    1.36867577714676   11.13415272542125
H         9.66259113184590    1.21782439332684   11.34094832940333
H         8.61066511527934    1.12154756813251   12.73279660763906
H        11.25781388952174    2.80863034059303   12.68864121651378
H        11.32585855837765    4.36459940410245   11.89820271842787
H        10.83083976024541    4.25380339567130   13.57673864217884
H         3.15435608712331    3.82279465458506   14.63162406148026
H         2.94563763448645    2.95641835183100   13.12681507305959
H         4.41432966759502    2.74859772818900   14.05560320323403
H         3.11366098800434    6.70651058957622   11.49876742165678
H         2.04845738198229    5.49104471100979   12.17169651743122
H         2.68660512291150    6.75095780475544   13.20075900133543
H         4.14180544167135    1.24387150646209   11.82320329475744
H         5.24370251120651    0.66664726351284   10.59610228297422
H         5.86145951025168    1.47000012201008   12.02796793402427
H         2.55349556572977    4.06774240449329   10.10227666991565
H         3.03887394271164    3.20249551815136    8.65547481695965
H         2.55414516329581    2.32247505850734   10.08713635094841
H         3.89633351921087    5.61062211421599    8.67740103488094
H         2.12744904116331    6.16886290816121    7.02324760230397
H         2.64124050849750    6.08418212560402    4.61090755766579
H         4.89578663934280    5.44299493222586    3.85284153514402
H         6.64029431020452    4.87892950230326    5.49295355535013
H         9.88249751681919    6.34747062151054   12.59220993165205
H        11.66626713791370    7.56906992324437   13.82339601143719
H        11.16387692952785    8.57317446343544   16.02084400000334
H         8.90932235353495    8.35420085552573   16.98879116615499
H         7.15289434446298    7.13375936817883   15.77299530179432
H         9.20188754969099    8.04699669684242   11.08488590499220
H         8.69779133975540    7.68661642234294    8.68822107449851
H         6.33206032661687    7.78611691210487    7.90864638248508
H         4.48824296167601    7.75649239632610    9.58125814796083
H         5.00336463438307    8.12262662026276   11.97324085866976
H         7.35592981787832    8.58946467806440   12.66914556703282
H         8.02638915144658   10.61236112986549   11.39561770563912
H         6.84939620661673   10.22657685838931   10.13283807048258
H         6.29608442935390   10.64635416137079   11.75911741121143

