53
CSD_code = QACBED | q = 0 | S = 0 | Stoichiometry = C24H14Br2F8N4Pt | MND = 4
Pt        5.20826339247060    3.50348348182818   -0.05026718528148
Br       12.52449212107489    2.81092436431088   -0.20573164332917
Br       -2.08839379778569    2.64771955090809    0.35697260149401
F         8.28047413665391    0.33679439497443   -1.90989566265859
F        10.91389721168529    0.73894916657987   -1.77326360020850
F        10.29755439773830    4.16255002981071    1.42015434472794
F         7.64826526104178    3.64502348157557    1.45256735410667
F         2.69528764595182    3.62357838828382   -1.48421389684498
F         0.03867821439641    4.08437237262960   -1.32819431775350
F        -0.37082056373512    0.57340517749881    1.80306502450132
F         2.27362043528400    0.22451932208265    1.81893124350343
N         6.52341938677513    4.94336503388977   -0.58674424061591
N         3.87317832441824    4.91290271085135    0.51489420773958
N         6.49534882194280    1.99256357998829   -0.38218174915011
N         3.95793440346402    1.95383092718406    0.25517032649350
C         7.82631514136634    2.05735044259136   -0.30459354517657
C         8.74540953070935    1.27547953945067   -1.05458397181122
C        10.10879015204401    1.48172296071900   -1.00220193757038
C        10.66575381215742    2.47652333621297   -0.20090111531795
C         9.80411164631067    3.22044547022747    0.59974215534217
C         8.44985592151462    2.98459863586747    0.57110354438656
C         5.81143505200339    0.72905514367559   -0.59952806123099
C         4.67161350762448    0.69982765315087    0.43153065593529
C         2.62378636138618    1.99342850671412    0.23996197394405
C         1.94493134052570    2.92689122279068   -0.58662065424754
C         0.58618417561669    3.13416973115709   -0.55252575692316
C        -0.22514540667983    2.35322582760682    0.26550457182566
C         0.38547783940979    1.35179168157882    1.01780954959475
C         1.75394994131632    1.17384416839762    1.00804487345859
C         7.12146573996496    4.79443684162382   -1.77275239652188
C         8.15372335665470    5.61199839549220   -2.19345271523009
C         8.58846936157565    6.63067559293969   -1.35788219197925
C         6.91935417368706    5.94258617529514    0.20358535444782
C         7.94600009900929    6.80257942588608   -0.14153035177091
C         3.45501667024772    5.91739844577796   -0.25684680647582
C         2.42880498336526    6.76577949092996    0.11735590493961
C         1.81105745495569    6.57565418460521    1.34370997221094
C         2.26832164760628    5.55050884535913    2.15915364178450
C         3.29819074751184    4.74538165009288    1.70957930118661
H         6.76018773733734    3.98571357542981   -2.39884003374167
H         8.61513636183785    5.44431584540165   -3.15321259837551
H         9.40738187110524    7.27084231371688   -1.64604942263979
H         6.41869636559010    6.03530900767658    1.15868995210437
H         8.24555827463457    7.58139513396872    0.54080185219777
H         3.93666256193842    6.02339458691482   -1.22032568647925
H         2.11047489722626    7.54981406277359   -0.55033570560987
H         0.99331963128873    7.20657995708830    1.65470064631843
H         1.82597770478584    5.36834649187104    3.12523039721383
H         3.67677223528553    3.93173516425673    2.31902739133599
H         5.38997818453201    0.67681183783473   -1.61170557200236
H         6.48045216187473   -0.12123304545851   -0.44883147062964
H         5.09437918164891    0.62117041433012    1.44170830366566
H         4.02005018951993   -0.15873069631896    0.25201714516432

