65
CSD_code = QACBUT | q = 0 | S = 0 | Stoichiometry = C28H24F8N4Pt | MND = 4
Pt        2.28783500341813    0.72309354292967    5.66467950936660
F         1.55452115181420    0.98847002426508    2.85194823375622
N         0.75410901354350   -0.42535906252430    5.04043095787330
C        -0.25156547299391   -0.60845255243561    6.07462060664573
H         0.05607665337732   -1.37095581089013    6.80289181610445
H        -1.21347991889803   -0.89903628760977    5.64388473851958
F         1.57625359738546   -0.12720017589021    0.37796929486979
N         0.98244305671990    1.12298114523187    7.13902242014572
C        -0.37475596942605    0.75140288736506    6.78113835728579
H        -0.81592277602693    1.48262579566261    6.09108374303252
H        -1.01446382898750    0.66415939550411    7.66276411251529
F        -0.72317345065077   -3.88050409826541    2.04597073109496
N         3.59097240342260    0.08822532022172    4.26042505294731
C         0.58575663559807   -0.95170991882730    3.82262009870698
F        -0.57806462348553   -2.92070806121261    4.54575820873676
N         3.63299865751038    2.08217709112997    6.33386911847396
C         1.07347539304516   -0.27518713978234    2.67412707626751
F         3.29852068611648    0.27611189195124    8.30163286527173
C         1.03828402622842   -0.81316659241372    1.40889688884810
F         4.19374407031549    1.37046912471192   10.62080556172859
C         0.44143081537065   -2.03979170343597    1.16709813681478
H         0.40090583283586   -2.46102363054739    0.17928635159943
F         0.10635843351201    3.64771915342175   11.13056574079241
C        -0.12601476145181   -2.69142583702210    2.25160154748652
F        -0.74572311763072    2.75377191654916    8.74677165861278
C        -0.05979649501832   -2.18342328270372    3.53278875300526
C         1.28858559599568    1.54262577496660    8.37037489305937
C         2.53294817946724    1.19499980066087    8.95911184652087
C         2.97006893184849    1.70638368059273   10.15801409483331
C         2.17064233020679    2.54914816760208   10.91286475058442
H         2.50222202358739    2.94458383769623   11.85555162009023
C         0.90916057500297    2.83838548169331   10.41386951330316
C         0.47325240367746    2.36406402722962    9.19408825974532
C         4.21900077378398    0.88283549550743    3.39205173682641
H         4.05802559093755    1.94725236036600    3.50381607225331
C         5.00432329890342    0.39312166947425    2.36819195594698
H         5.47147794975189    1.07803446268827    1.67798622422122
C         5.16520491529861   -0.98095728796415    2.21503429778304
C         4.53257143874576   -1.79777188550304    3.14847368956721
H         4.62575161300365   -2.87091018339752    3.08917621260849
C         3.76120947265450   -1.23145798567006    4.14309747406215
H         3.25124668521718   -1.85202506490593    4.87188039681046
C         6.01828230130182   -1.54850629489366    1.12562820875184
H         5.67404146198856   -2.55200009741538    0.87168504915829
H         5.94331717012888   -0.92080350890494    0.23632732252394
C         7.47958800295956   -1.61318370100759    1.57892521044447
H         8.09945890622635   -2.02279274792132    0.78606565834529
H         7.57763897678629   -2.24625667081505    2.45786815004778
H         7.84604830485504   -0.61977505037614    1.82754566507274
C         3.15277805462886    3.30172211947047    6.59841367418031
H         2.15589961531176    3.51919000201567    6.23106735924589
C         3.86388981478647    4.24288957829251    7.31314610213356
H         3.42263486862767    5.20576243978472    7.51758452069471
C         5.13710947628372    3.93439407367001    7.78699503582371
C         5.64657748373379    2.68261828589363    7.45541934609323
H         6.63268402969395    2.38956516236920    7.77991115645743
C         4.87322592012827    1.79643253234446    6.73243706282290
H         5.24471463414659    0.80785204567987    6.49546112559732
C         5.88653091035852    4.87843841090506    8.67062325758350
H         6.95883802316150    4.69319723915669    8.59179758051388
H         5.68668115094661    5.90852935154606    8.37025770321350
C         5.44151578150773    4.67850463691671   10.12299279031255
H         5.98859614282832    5.35138297309892   10.77777120874086
H         5.62866548312696    3.65561504749973   10.43979345024460
H         4.37766669395910    4.88024868516196   10.22514874301926

