76
CSD_code = QACCUT | q = 0 | S = 0 | Stoichiometry = C28H38BN7OW | MND = 7
W         2.03542018381678    3.49717697647052    4.51250663602409
C         3.97350986165602    3.46647869586202    4.42938032859520
O         5.13418174488709    3.34877928326662    4.45266601397368
N         2.03075675580888    4.89269993734322    5.91739427358411
C         3.11501434924505    5.43128203387544    6.71111545799174
C         2.72818568698798    6.73545708857695    7.42170259899894
C         0.54308798560194    0.68952123814719    5.91524283519147
C         1.57763738174539    1.67867193418243    5.49768876775157
C         2.87230771636581    1.78302140665722    5.54748228580736
C         4.03289313970148    1.04094063959375    6.10645440674414
C         3.59074587155882    4.40702185557078    7.72783383700248
C         4.92881496202658    4.03934410004421    7.78202272718033
C         5.37073200009910    3.11361127094066    8.71066403733029
C         4.47705401879213    2.53613273678460    9.59655244833215
C         3.14129775322182    2.89792096194045    9.55251963122257
C         2.70423980162997    3.83009596203851    8.62900346262699
B        -0.19138857268865    3.86272652199166    2.00780738695240
N        -0.19848552539946    3.73386414214130    4.51597637853796
N        -0.89009714472123    3.83103634644354    3.36906548236935
C        -2.21419680951940    3.87833794199667    3.62299239385360
C        -2.37333540096183    3.80391888446482    4.99165778530168
C        -1.07777336291863    3.71224196696969    5.51275159970407
C        -3.26806684273678    3.99049793482214    2.58034803509020
C        -0.71875684700008    3.58819456057418    6.95293670543237
N         1.80972932380197    5.09752193416928    2.91437030724283
N         0.81078307030338    5.02991823886721    2.01437687250532
C         0.87300019352011    6.07751320808337    1.17434252185290
C         1.95640407311095    6.84978159946239    1.55203522816690
C         2.51988511066551    6.19518476582582    2.64830840142515
C        -0.07525673092272    6.31263828030023    0.05422272459323
C         3.71253946417656    6.62291127256414    3.42362596632458
N         1.70748313140536    2.30794121260579    2.54484037505795
N         0.61079144671603    2.56950166367322    1.80984396445618
C         0.43357250721467    1.60674906588148    0.88386385299725
C         1.45840015393647    0.69281717771634    1.03536579271391
C         2.23909530543474    1.17547820253434    2.09002351651641
C        -0.68448213588982    1.58353903476651   -0.09577389541769
C         3.47977857653932    0.56886121174151    2.63865652124549
H         1.15170404335589    5.29348703426298    6.25505718125770
H         3.96467614239983    5.63529463891445    6.04636122428979
H         3.58367046209612    7.14666969265169    7.95258685706397
H         2.38085190207588    7.46974845954100    6.69628577341506
H         1.93269144504092    6.55564598532583    8.14289131375306
H         5.63039893656145    4.47761856252876    7.08803927907828
H         6.41478281746432    2.83716976671999    8.74023990215960
H         4.81952957974031    1.80914582408789   10.31901378830202
H         2.43867884383326    2.45530946568200   10.24453211761052
H         1.66374181077128    4.11790756816429    8.61914621274980
H        -0.45702588266825    0.97974848982648    5.59377461487810
H         0.77433607294588   -0.28523232703232    5.47882670830098
H         0.54054514767661    0.57878258963970    7.00183376931916
H         4.98221791712993    1.38033872719151    5.69474296118434
H         4.06317928848481    1.19100726814198    7.18666980079580
H         3.92623724239824   -0.02846080779083    5.91247388330362
H        -3.29318541137073    3.81151489677982    5.54116969988771
H        -4.24509196658348    4.00451772237000    3.05666405502015
H        -3.14629074713810    4.90514784822826    2.00233645771386
H        -3.22511148713651    3.14819428646126    1.89191615195202
H        -1.38223333938382    2.87267892685107    7.43770252817454
H         0.31214560015765    3.25089472428211    7.05231673958392
H        -0.84215395136176    4.54624669168288    7.46124755020568
H         2.29504748598268    7.75786744355578    1.09598254242471
H         0.19084869819529    7.23439287409133   -0.45627811247110
H        -0.03855366148097    5.49180180097324   -0.65974920158531
H        -1.09629947419738    6.39562223416812    0.42217750469071
H         4.32830224695391    7.28325322893747    2.81710579720957
H         3.40717191843013    7.16224945886089    4.31951818042939
H         4.29405527971305    5.75424241624406    3.72236663628963
H         1.62298238291548   -0.19718604389764    0.46229993164725
H        -0.61626996637321    0.68264684760169   -0.69979522551124
H        -1.64555343025320    1.59267300235892    0.41555231771974
H        -0.64317056839975    2.45062541014748   -0.75296495784699
H         3.96570917986227   -0.03269395223914    1.87333270185623
H         4.15934684701631    1.34699080217805    2.97763117003132
H         3.24531036115390   -0.07383755454003    3.48656468650844
H        -0.97752396321857    3.99984470816853    1.14045979333014

