73
CSD_code = QACCIH | q = 0 | S = 0 | Stoichiometry = C25H37BI2N6OW | MND = 7
W         0.27655868119469   18.81017229199887    1.58417219173067
I         1.66507440315664   18.67301885205262   -0.85649368395438
I         5.99080283579969   15.58857771462843    0.86725296289449
C        -1.11217887316232   17.60270240459712    0.93570678480794
O        -1.87896353094710   16.77528603267993    0.63828633067045
C         2.27943478815228   17.55969859588880    4.09896288212984
C         1.34120241235398   17.62967838243049    2.94318646860633
C         0.61329469240598   16.80383139301018    2.22983479168701
C         0.41903381268339   15.33504026425666    2.02625942119289
C         0.88335506690402   14.52896329787385    3.24374783001587
C         1.14914922482330   14.90227813746000    0.73777434331411
C         2.63556844118826   15.24241770451497    0.75893667788152
C         3.33277235631157   14.92668551135437   -0.56288009761546
C         4.58700137706085   15.74793563697933   -0.77128003878768
B        -0.16657134727817   21.86587189381737    2.79681625155836
N        -0.88714561594947   19.50860507305232    3.29119633373346
N        -0.86185306890284   20.80393016035821    3.66339184746523
C        -1.54441638430812   20.96989879070115    4.81229811732605
C        -2.01877714620582   19.72892906090733    5.19439414882995
C        -1.58890625908734   18.83756336759744    4.20997857199754
C        -1.72279342924254   22.27635764864616    5.49603923287589
C        -1.85658530087271   17.37716147287640    4.15066891518052
N         1.73613682541240   20.34670160745128    2.20341341565677
N         1.31692999296820   21.52422467758836    2.71117243575284
C         2.37247373797198   22.27592977511254    3.08653189510105
C         3.51179945435517   21.54947585753240    2.81214402241670
C         3.06877806803517   20.34419165900695    2.25694037760776
C         2.26366277459735   23.63280445098731    3.68180112358829
C         3.95846800727375   19.24499207518432    1.79428816556941
N        -0.78030520722703   20.57173169021258    0.72877881201765
N        -0.76908418692288   21.75302347471817    1.38727183838034
C        -1.40229595087840   22.69242347707391    0.66532687374546
C        -1.84464530354558   22.09372510751733   -0.50025256339912
C        -1.44095288423291   20.76065975140511   -0.42212268258321
C        -1.56367457050429   24.10546400402944    1.09252854277004
C        -1.69808523165520   19.71761806470189   -1.44771564212412
H        -0.33348036201785   22.94406236149613    3.23834123258337
H         2.63676375360243   18.54731554458417    4.39311538088376
H         3.14677776909858   16.94140194823821    3.85922019664405
H         1.77211971138163   17.10883945387882    4.95496682227010
H        -0.64775745480990   15.12518670545703    1.87140763835440
H         0.77759234005092   13.46483981124472    3.04311686324740
H         0.27920226395581   14.77109656513051    4.11603432266157
H         1.92288657742420   14.73516375285537    3.48023830089070
H         0.68321130599315   15.41462733399870   -0.10775820380790
H         1.01334416807922   13.82766249849865    0.59742562354206
H         2.73714724033799   16.31146749369410    0.96202535224771
H         3.12956397313847   14.69783426390804    1.56524212240071
H         2.66578769400439   15.17779074905133   -1.39264225147281
H         3.55799008229029   13.85902148807399   -0.62048240164588
H         5.13147520374558   15.43065920701466   -1.65623977660673
H         4.34668627651126   16.80481386344104   -0.85116491956315
H        -2.60179716282539   19.49775759853562    6.06218941236219
H        -2.28965554856301   22.12942336335838    6.41127877512413
H        -2.25972887094637   22.97699836808921    4.85882757571802
H        -0.75893070396704   22.71678189627112    5.74514353400975
H        -2.56823437233618   17.10702304512862    4.92712386104062
H        -0.93797586587122   16.81005277113388    4.30324807165391
H        -2.26821714566312   17.10073245185676    3.18130998938372
H         4.52773304342994   21.84127486652667    2.98280096462882
H         3.25962441787688   24.00939857896062    3.89901298209281
H         1.68784650078813   23.60744923723317    4.60570442867419
H         1.77144295784351   24.31944377934965    2.99494821326813
H         4.78289981029672   19.11967782683532    2.49429427680309
H         4.38089994351855   19.49438079135288    0.82041547001774
H         3.42126735177108   18.30328707289883    1.71011122031477
H        -2.38552012648919   22.55425587631464   -1.30114758117418
H        -2.07609056090274   24.66137424408999    0.31217676155791
H        -0.59408748859243   24.56529232213193    1.27461020871762
H        -2.14614402296848   24.16833643496147    2.01021194886767
H        -2.66982398156413   19.89256698541593   -1.90517324003207
H        -1.68012359410290   18.72160530762475   -1.01408586154708
H        -0.94165778523101   19.76323478110906   -2.23180421204433

