91
CSD_code = QACCON | q = 0 | S = 0 | Stoichiometry = C36H44BIN6O2W | MND = 7
W        11.00679825780593    5.95919877910922    5.37319226318500
I         9.17180933358380    3.82646890005912    5.43115180482328
C        11.11488908211775    5.93835661796382    7.32012648922079
O        11.31190245325563    5.82508062001430    8.46415302284735
O        12.36744258904863    2.23603270849757    5.23838807151159
C        13.26118611261052    2.38005638926732    6.31639135377216
C        13.13937273517704    3.78056286406435    7.00105352068221
C        14.46885113900958    4.17100072068850    7.64876913019600
C        12.68713258851024    4.77439267972209    5.98445975861378
C        12.90172058873608    5.22008129290376    4.78378448566813
C        13.86038993879188    5.22508280012901    3.64084137789513
C        14.73309342304965    6.50537729463843    3.69483510300830
C        14.73845246482468    3.97499583493238    3.58746710900234
C        13.08850754344808    1.30386090750050    7.36034947316300
C        11.83747660922464    1.06621643919617    7.91975314952579
C        11.67826069934963    0.09163573937448    8.88773642810673
C        12.76618355237185   -0.65181154725626    9.31322930725341
C        14.01456227387257   -0.41908209308507    8.76283633247937
C        14.17370723945909    0.55234413239703    7.79001757032126
C        15.16742605684201    6.89664015846013    2.31384360350809
C        16.42684095238254    6.57911802594808    1.82532587124276
C        16.78390011564568    6.91214558633530    0.52974658973124
C        15.88366507982083    7.56464434911290   -0.29404083427317
C        14.62490443832828    7.88847891325309    0.18507175276165
C        14.27203341961077    7.55728731925183    1.47938967463733
B        10.23702632338564    8.50052521130596    3.40318437654001
N        11.88058100852897    7.95120772860667    5.21426981987494
N        11.47564992338996    8.81025500546238    4.25954459995421
C        12.23570545292157    9.92079698930785    4.28105357504319
C        13.16943931590868    9.76360466622982    5.28972945587092
C        12.90837588520829    8.51532816080345    5.85743439412315
C        12.06116341293697   11.06961372650781    3.35646690528464
C        13.62806054490446    7.87512185917357    6.98950147744803
N         9.24820062947109    7.31190980715455    5.39484158310507
N         9.09351428470571    8.20547130855370    4.39040399488902
C         7.90238848060918    8.81759373451133    4.49670113072694
C         7.26932988345889    8.30801543607233    5.61605268312120
C         8.14852857914807    7.37031771299879    6.15789633015440
C         7.40448024417796    9.84505295604654    3.54693864378143
C         7.91868694936378    6.56681501180895    7.38500475628852
N        10.71352951846679    6.05705383135620    3.19462722530428
N        10.50731537023475    7.24318082040275    2.58808497544373
C        10.52143070301231    7.09333960134455    1.24693996739174
C        10.74691985043911    5.75813911380752    0.98671160222259
C        10.85815278925667    5.13966054015374    2.23778448251838
C        10.33304053077178    8.20638903915730    0.28082930007152
C        11.09065060307595    3.68603585183928    2.45678640802283
H         9.96787999894858    9.41317463672386    2.70909762646050
H        11.47214527976887    2.10600735658326    5.58247536743877
H        14.25563228808421    2.29919942223742    5.86551709193221
H        12.38736661628077    3.69763127570414    7.79591204338608
H        14.81058514604893    3.36604849229577    8.29651131175684
H        15.22842539430263    4.35861751145597    6.89189538847317
H        14.34480125677149    5.06687684029844    8.25253241728032
H        13.28860825407636    5.27255993418373    2.70547886191113
H        15.59648017600827    6.33115653774615    4.33988191653850
H        14.15011163055617    7.32321210877809    4.12083340913349
H        15.35274915325478    3.99488908961624    2.68887745270992
H        15.39378858380527    3.92923627461140    4.45528389089706
H        14.11985965976236    3.08149023425314    3.56995469001949
H        10.97733906458899    1.64209927936117    7.60538191449558
H        10.70105370339701   -0.08483232556264    9.31155339905890
H        12.64115552214387   -1.41123594344560   10.07084928441106
H        14.86699368284771   -0.99710423031482    9.08904125877685
H        15.14880292692795    0.72575877573084    7.35662734416079
H        17.13533231892994    6.07104298751175    2.46430217175489
H        17.76788208554159    6.65967450075514    0.16203472084814
H        16.16166184585315    7.82224471753400   -1.30534971306663
H        13.91854622674463    8.39955803382240   -0.45338505538147
H        13.28977774661778    7.81288259987379    1.85298248442271
H        13.93356746118169   10.45600409658997    5.57778227054537
H        12.82196851115891   11.81721550085879    3.56315466083373
H        12.15661202901767   10.74841307146169    2.32060523496506
H        11.07901542656871   11.52231835758983    3.48133014796426
H        14.45677383401845    8.50808354503044    7.29746551485224
H        12.95833539868033    7.73888689532428    7.83779032114459
H        14.01340768421605    6.89728846010831    6.69879844661175
H         6.30308061558693    8.57483683557474    5.99181962913184
H         6.39262475807042   10.12964222246254    3.82200974378718
H         8.03702940059816   10.73110842470151    3.56771969875706
H         7.39832071855325    9.45688194282289    2.53015220051318
H         7.37345032812458    7.16414826266992    8.11296926642700
H         7.32129491764876    5.68472926881203    7.15366841153025
H         8.85825981093942    6.23678917079155    7.81958032417417
H        10.82296092317647    5.28598864808006    0.02866432052534
H        10.44093347068609    7.82425223516913   -0.73082206536552
H         9.34296854153350    8.64803699092480    0.38482336250067
H        11.07091496135723    8.99100925237455    0.44207453169781
H        11.70384804488467    3.29398627306484    1.64693999760005
H        11.58658677319158    3.48107777928668    3.40498871372565
H        10.14078885929369    3.15042111144979    2.44433589458761

