54
CSD_code = QACCAZ | q = 0 | S = 0 | Stoichiometry = C27H22ClNO2Ru | MND = 8
Ru        8.06342948325771    4.20103657084325    8.14886761048621
Cl        9.90502871686045    5.72662243375142    8.15781698327496
O         8.91634369804897    2.97027487405882   10.74836896759410
O         6.24222929914165    6.15976745211630    9.50924888415712
N        10.14670291480705    4.14134161980958    5.52744085491720
C         8.94186343669895    3.72813778564094    6.04649518717783
C         7.74964743866786    4.54451068518757    5.96582886368756
C         6.65944066564443    3.76956519411115    6.44719487500999
C         7.19029614489736    2.54337440183017    6.99304584726350
C         8.61989671550477    2.52916668538985    6.75027571257977
C        11.18164829441523    3.28497170368707    5.15894274745279
C        10.91640725397186    2.17342669230486    4.36036523662937
C        11.95185613975599    1.36028198427525    3.94188155862106
C        13.25846883945554    1.65260521401903    4.29665104184228
C        13.52714569412959    2.77323791189978    5.06599608531702
C        12.49838958912747    3.58970045935001    5.49482538394365
C         7.68799939562234    5.83605701671472    5.20343985914509
C         5.22115738729943    4.05423972090778    6.33359126689424
C         4.37460716204991    3.87144791638198    7.42562261650826
C         3.01662841578669    4.08920974928489    7.29966173383754
C         2.48449891616848    4.48801873448171    6.08386149414303
C         3.31747082833194    4.66373207800188    4.99258158482348
C         4.67825125916865    4.44643028397561    5.11239977870162
C         6.37112955470199    1.37699613226638    7.36533085290550
C         6.48664914029881    0.76649137244447    8.61047491432619
C         5.71324067547349   -0.33572606081152    8.92376698668764
C         4.81233102405002   -0.83836924416308    7.99999915231064
C         4.68728453605202   -0.23332457841144    6.76089704247571
C         5.46149704995800    0.86656118029089    6.44202062723627
C         9.48518132046483    1.31617326568522    6.94605971323691
C         8.57169641898420    3.44676115154616    9.76535446755211
C         6.95682615171338    5.41429068013045    9.01645680432382
H        10.44522898388522    5.05257013563935    5.87408145265515
H         9.89885817627530    1.96924364705101    4.05936548118626
H        11.73860635193622    0.49926089268906    3.32528109100259
H        14.06467100486127    1.01542299681162    3.96648490349346
H        14.54511685756537    3.01082297501898    5.33695242570482
H        12.70162075868739    4.46147925352020    6.09984780763362
H         8.47311180623086    6.51384628314775    5.53847173221109
H         6.72574636662054    6.32340582935887    5.34904355695365
H         7.83809170661522    5.65026956389543    4.13791020178531
H         4.79632074264857    3.57234454610760    8.37757416350832
H         2.37129635470170    3.95094049168364    8.15397273671658
H         1.42319111486580    4.66089152834249    5.98779853387817
H         2.90727917856473    4.96918248486216    4.04130213505081
H         5.32143454393267    4.56309578351127    4.25257417617112
H         7.16882020185331    1.17999796865365    9.34248056220161
H         5.80923418930469   -0.79842854576254    9.89456889197002
H         4.20515233851738   -1.69595993547104    8.24773992579541
H         3.98287076867186   -0.61826984658541    6.03862349953137
H         5.36530964858758    1.33597146201996    5.47354021467440
H         9.48828085892819    0.70141206164385    6.04367139923869
H         9.10209377852470    0.70890276832017    7.76434572265524
H        10.51372070775666    1.59518658856615    7.16760465090963

