40
CSD_code = QACFOQ | q = 0 | S = 0 | Stoichiometry = C18H16MoN2O3 | MND = 8
Mo        0.87072599803215    2.55395278762554    2.50033075025650
N         0.58014040009027    4.16953703585454    3.79556353117462
N        -1.20926180674321    2.72973911470863    2.54856255535254
C         2.77607189714511    2.30568961615429    2.77438142745087
O         3.91261598552512    2.15675910682476    2.88983615273309
C         0.98979152159742    0.86738842445742    1.54652331821241
O         1.09313051481225   -0.11542934507944    0.95414940279840
C         2.11295023358827    4.16750268782732    1.32555050244920
C         0.80118796169921    4.06013950226370    0.81312211297356
C         0.51090268231231    2.82444924811500    0.19219726436972
C        -0.17613177194861    5.20600467865768    0.83660383186155
O         0.47180649670395    1.53975757054746    4.26724602539668
C         1.50191819235599    4.81457382836374    4.49571592985632
C         1.20584814913172    5.76959838248662    5.46174487268445
C        -0.11196635409323    6.08358852383022    5.73546579816020
C        -1.11585033955043    5.39456793920774    5.04723439241987
C        -2.51002434047207    5.59038224796028    5.27304724956356
C        -3.43774322949838    4.84798611213137    4.62308030456791
C        -3.05688584319697    3.84014096161435    3.68899656978647
C        -3.96591124769435    2.99823825193445    3.04004651651847
C        -3.46910908048441    2.02296567120444    2.19597545792074
C        -2.09864020041995    1.92404980453983    1.98539701121577
C        -0.71279295207512    4.43513022611246    4.08944239768876
C        -1.68216277151865    3.65711392403180    3.41233871638767
H         2.38855377885978    5.11193342458315    1.78936431438352
H         2.91744324651590    3.73594302316393    0.73635522363350
H         1.29273834653979    2.37425240943635   -0.41354063244870
H        -0.47918095024010    2.70865639264180   -0.24277945776845
H        -0.02136841996458    5.81440170191716   -0.05850417692391
H        -0.02746800662138    5.85117081036069    1.70381320537848
H        -1.21008849806326    4.85837641372208    0.82486879617196
H         0.98828090952143    0.75157627325548    4.44984390918048
H         2.53136587803740    4.56405008910529    4.27620518029035
H         2.00996768710423    6.25908420445640    5.98861707160248
H        -0.37113433500858    6.82798072996462    6.47332749891096
H        -2.80617287009056    6.33889320691016    5.99359689158544
H        -4.49177407928450    4.99026305835550    4.81262425920367
H        -5.02598611191821    3.10376230469359    3.21539257186560
H        -4.13397294816600    1.33586181087984    1.69626907427025
H        -1.70381372251735    1.16056784517882    1.32829417886578

