86
CSD_code = QACFEG | q = 0 | S = 0 | Stoichiometry = C39H40O4P2Ru | MND = 8
Ru        4.95361234021136    3.62781198154366   15.43209764937663
P         4.77213839915361    5.94573187112093   15.94232413112570
P         3.33714207381189    3.80849560888942   17.11612202616731
O         6.60166361264689    6.29887579490607   14.76380146262043
O         7.70020601483856    5.27671083276666   13.09295953428092
O         7.97447013644366    1.66730142748913   16.44226211570577
O         7.84382350698792    2.96362839489657   18.27267831120462
C         7.01252511989161    3.94938487295174   14.87368818006705
C         6.90004924885716    3.81735115413350   16.32354490554849
C         7.07049507251867    5.24591284230135   14.28487777935246
C         7.76900475207299    6.52838894135884   12.43202281844475
C         7.60430931329112    2.70504015836148   16.95526046418999
C         8.52218954032360    1.94625560110810   18.98389370790922
C         4.31175942041722    3.76735265300984   13.37713899588524
C         3.15397483043055    3.54268873134403   14.14246522854575
C         2.47591047385620    2.23920757923261   14.30393506410293
C         3.00691641603843    1.28184926565127   15.06057544527629
C         4.37077332570702    1.43905061645485   15.59181149550185
C         5.42660559305868    1.55500283041982   14.69517944163571
C         5.19861518339803    1.39851126474290   13.20444064127966
C         5.00798220098643    2.74763209942383   12.50385695660253
C         3.18090705003992    5.63327930886316   16.97342726995316
C         1.63086027519191    3.14517198279797   17.12494774478150
C         1.43160104312425    1.91513316311465   17.74988221037300
C         0.18390345609428    1.32411559965913   17.75994169420027
C        -0.88573598939265    1.95246299535683   17.14232099559658
C        -0.69564537780494    3.17010373277784   16.51301574675697
C         0.55555523198106    3.76139563972064   16.49759219467386
C         3.66349035969769    3.54887978993235   18.89700901392423
C         4.75919673967199    2.79552324013374   19.29606041087765
C         5.01175383725527    2.59474058969273   20.64180693032017
C         4.16763410734487    3.14458863101075   21.59160395718405
C         3.06595045613782    3.88893754842213   21.19678240833223
C         2.80879493913278    4.08809794189955   19.85404599946668
C         4.10284644379306    7.37623948352222   15.00856454115125
C         4.17505871325238    7.49640333412259   13.62944307712361
C         3.61923713315006    8.58820333674952   12.98442452809529
C         2.98354727427781    9.57655984634453   13.71427994570406
C         2.90749370288495    9.46768668471779   15.09390889388749
C         3.45808332410146    8.37505491710225   15.73537490680264
C         5.69821875754087    6.81320005064821   17.25777783667420
C         6.31797296348521    8.03352271028169   17.01641679701085
C         7.00580134818191    8.67345925154154   18.03135746327483
C         7.09148238349914    8.09946566201175   19.28939366529129
C         6.49191727326406    6.87418917027523   19.52883512612632
C         5.79929580055415    6.23498002432117   18.51743012832312
H         7.59495188305258    3.19943979068198   14.34152892254872
H         7.04627494875941    4.73671559765443   16.89656554648449
H         8.05028368662471    7.31760122121032   13.13212246465886
H         8.52252389604882    6.41975662684473   11.65491889942884
H         6.80480632402171    6.78215346643626   11.98381827647994
H         7.92096408573249    1.03352804639818   19.01981511905195
H         9.47478065824164    1.71266363644437   18.50250653670031
H         8.68760399950736    2.33399457175634   19.98636062552285
H         4.39783478165708    4.77107797932915   12.95788463005094
H         2.46345917243802    4.39048827811483   14.20066218489044
H         1.48764899638245    2.14278167929717   13.87083859895297
H         2.49088699310575    0.35272753656051   15.26548339634181
H         4.56286490613767    1.01403406338436   16.57714457654620
H         6.41406628537792    1.25872044085566   15.04172367331625
H         4.43503076908587    2.61828476604190   11.57660874903201
H         5.98578878235608    3.15193402044167   12.22615614967142
H         4.30943844575004    0.78262899819782   13.04127561393546
H         6.05348584677315    0.88174984404650   12.76386677105396
H         2.30700912725701    5.88712909391341   16.36773239251818
H         3.11037220960433    6.14126049860231   17.93853334789440
H         2.26749844473899    1.42491464760580   18.23133037629304
H         0.04285297330965    0.37114532440322   18.24895806064995
H        -1.86301012644453    1.49293329035369   17.14978306228060
H        -1.52602514498586    3.66306346967253   16.02794095625100
H         0.68213765018213    4.70638320712683   15.98925563275253
H         5.41654752812650    2.39043029404439   18.53875982524734
H         5.86788701197685    2.01249791492196   20.94887263889797
H         4.36465985566213    2.99280451751690   22.64281267162795
H         2.40603181345178    4.31256718857563   21.94012425382650
H         1.94363532989712    4.65734094819334   19.53979372301433
H         4.68291494244143    6.73872019597298   13.05425414330890
H         3.68466741858483    8.66780383095337   11.90849868510908
H         2.55195993935156   10.43018619033177   13.21256830356674
H         2.41779822728503   10.23879912227518   15.67132662370920
H         3.40395856331535    8.30056698993849   16.81282750771958
H         6.26534427389351    8.46973197388986   16.03061590220960
H         7.48115677395407    9.62475474172288   17.83894494014482
H         7.63129312238031    8.60257252830990   20.07852942654096
H         6.56530588578335    6.41082541724009   20.50214477430542
H         5.34922189775842    5.26840889360645   18.69873217672510

