59
CSD_code = QACKOV | q = 0 | S = 0 | Stoichiometry = C22H32N2NiO2 | MND = 4
Ni       -0.00019049685789    0.00003061848908   -0.00002542030808
O         0.40264757132956   -0.96984503706637    1.52875412103728
N        -0.34519357845702    1.75352840795166    1.16407222311019
C         1.19754141609083   -0.47529215805366    2.43612983026298
C         0.94082430048748    0.77911204379475    3.04379487302099
C         1.79901069303987    1.28628296860356    3.99835886456564
C         2.91238201977221    0.56939414913467    4.40649918378801
C         3.15858005066116   -0.67605961894648    3.85055156461003
C         2.32700393853463   -1.19024879527300    2.87969239505777
C        -0.30828744597711    1.49072563269769    2.61704622220021
C        -1.67251444592150    2.26586178046379    0.79158463507433
C        -2.71064893340657    1.14480063486321    0.77999909717142
C         0.73489204309930    2.67580963878738    0.76781595187296
C         0.65017739396096    4.09888649938687    1.32254873189627
H         1.58926042595942    2.25036563656723    4.44369149467515
H         3.57505959577663    0.97494169234109    5.15596907603813
H         4.01640707401348   -1.24861491553430    4.17499268086846
H         2.51770555458396   -2.16570043907625    2.45570793558478
H        -0.42360055871507    2.42760219580899    3.17692754334339
H        -1.15818706060884    0.84176952867578    2.84893167100102
H        -1.98644575702195    3.06163743465618    1.48010318611753
H        -1.58723549077379    2.67804213219742   -0.21519775003731
H        -3.55303876513689    1.41477465839292    0.14872105003240
H        -2.24457163572927    0.23476378191347    0.36683944237415
H        -3.08439477986838    0.92035213257703    1.77623840488234
H         1.67755242493036    2.22663916211447    1.09834793809486
H         0.73399247012303    2.72242934028121   -0.32469010000519
H         1.49479730786087    4.66729948365624    0.94145563271299
H        -0.26191823831997    4.59770718412024    1.00565823335679
H         0.70389527060746    4.11336234508074    2.40777446720105
O        -0.40313585024313    0.96985092606306   -1.52881134407343
C        -1.19800611135582    0.47510391245248   -2.43610640167753
C        -0.94104151336117   -0.77924131389226   -3.04378921508904
C        -1.79918843361146   -1.28662463946804   -3.99827500387519
C        -2.91276720827832   -0.57000320021663   -4.40631956678006
C        -3.15921858635052    0.67539170494060   -3.85035107462347
C        -2.32768129628079    1.18978674831917   -2.87956729637532
H        -2.51858400292017    2.16518761196648   -2.45555828209538
H        -4.01721866354100    1.24773280000989   -4.17471212593801
H        -3.57541444882466   -0.97571351404575   -5.15572853904046
H        -1.58924589766744   -2.25065897371368   -4.44362110683221
C         0.30826573580102   -1.49055289218933   -2.61711297130584
N         0.34526703643507   -1.75338229910586   -1.16414648549741
C         1.67275566945982   -2.26529797896653   -0.79167626104569
C         2.71053125217695   -1.14390258675939   -0.77999182991455
H         3.55299585017429   -1.41363799588212   -0.14871071337783
H         2.24414558623889   -0.23404387824347   -0.36678546709642
H         3.08422256596411   -0.91926135894871   -1.77620797585062
H         1.98695699341018   -3.06092344826940   -1.48024417423604
H         1.58759825226597   -2.67758122729999    0.21507307084808
C        -0.73451456770701   -2.67602626579124   -0.76791035574350
C        -0.64930618716211   -4.09906951802023   -1.32265480052290
H        -1.49373714725570   -4.66777650886595   -0.94158253438005
H         0.26295404851657   -4.59758391089028   -1.00575389686418
H        -0.70299764733160   -4.11355862604313   -2.40788211143757
H        -1.67732259537656   -2.22716128239421   -1.09843358043782
H        -0.73360723435518   -2.72265494024343    0.32459425926844
H         0.42379873435383   -2.42738305066098   -3.17702539550527
H         1.15799330278921   -0.84137241244645   -2.84900200010159

