55
CSD_code = QACKEM | q = 0 | S = 0 | Stoichiometry = C24H21IN2O4P2Pd | MND = 4
I        11.48152470074773    8.56229924017314    9.29178228412237
Pd        8.97384337392897    7.94829834730319    9.47069815762690
P         9.03061723942672    6.67937831722070   11.29328208682617
P         8.19009652763541    9.05019059567941    7.70427305332562
O         7.50029060761624    6.30879215703531   11.64553962741506
O         9.66081168946180    6.76026769300229   12.75980961967364
O         6.63089441998842    8.65797067995303    7.57011192047081
O         8.57977794358135    9.24620779846331    6.16695717353321
N         9.78810732740440    5.20473900190691   10.90734273512629
N         8.21946843989883   10.71613280408754    8.05777055582105
C         7.04342560553875    7.47442432330553    9.60747399793975
C         6.58730955829892    6.72204240275412   10.68103991393451
C         5.24533933894906    6.38865946836831   10.78554211836291
H         4.90421211734006    5.79765479725315   11.62003652888167
C         4.36883164897412    6.82603345227135    9.80412970147552
H         3.32321416093087    6.57268923818811    9.88115515487625
C         4.80459513649280    7.58233188472216    8.72676009457389
H         4.11970550805341    7.92616881493969    7.96863228475147
C         6.15096724155282    7.90129621427123    8.63379130653738
C        10.95915217258689    6.17113669478512   12.75804256359900
H        11.19447527990725    5.91722391162767   13.79247169270205
H        11.68995796266536    6.89770302621510   12.38427216059620
C        10.90367469675048    4.94202651652112   11.83387492990611
H        10.65319399393824    4.05121205814228   12.42018513550914
C        12.15758195406395    4.71066039613052   10.96489802774966
H        12.92754080284016    5.46251269418503   11.15242719757451
H        12.58862032670356    3.72622724240930   11.14882320380946
C        11.63722376987966    4.83410696694509    9.55981164052363
C        12.30377023773076    4.79100614009172    8.35343901533743
H        13.36572797337340    4.60501181455548    8.32073188161153
C        11.58995199381348    5.03106673809619    7.18609481413238
H        12.10573595125827    5.02439257655557    6.23841425828624
C        10.22867295644110    5.28865514906189    7.22136049657810
H         9.68872306261510    5.46504327115342    6.30169056576513
C         9.53963362549898    5.32542243102423    8.43173860755519
H         8.45152214388403    5.42877444141123    8.45797770643657
C        10.27257391557674    5.10258781279014    9.59092962338642
C         9.44497825083243   10.37084137958174    6.02904255439470
H         9.38573149520053   10.69057597932262    4.98833079631886
H        10.47268067593999   10.07083820329434    6.26136889459405
C         8.96360314640238   11.44783805990076    7.01742086968929
H         8.26371846001045   12.12394721847346    6.51440603755886
C        10.08146015165307   12.23097068227445    7.73798702043702
H        11.07562213947221   11.90296357445778    7.42596768292199
H         9.99866725370314   13.30121379915153    7.54746148990592
C         9.85633150730541   11.90691704637743    9.18865453039891
C        10.58216918470630   12.26073098805229   10.30665668305158
H        11.44300880988478   12.90464378990008   10.21968357042096
C        10.20955526408609   11.73853732530860   11.53885592463339
H        10.78637410775217   11.98677284151200   12.41625281073288
C         9.11548225753514   10.89584861046497   11.65671791991381
H         8.83480881351979   10.50682822718839   12.62551826702478
C         8.36617430505135   10.53799431947159   10.53786804545983
H         7.44564310393852    9.95750572969160   10.63722288333445
C         8.76682566764214   11.05078511298549    9.30997218287136

