47
CSD_code = QACKIP | q = 0 | S = 0 | Stoichiometry = C17H25Cl2NSiZr | MND = 8
Zr        1.82188254241634    8.87032943228763    1.68033679801800
Cl        1.31891553396367    8.82377677762467   -0.59053648678849
Cl       -0.32076004761589    9.07056376355043    2.53203926822136
Si        3.57625596289614    9.70515329327894    3.92805824366395
N         2.86470275969215   10.39064899543512    2.50850715631469
C         3.39472678004449    7.93843307251451    3.23028480161303
C         2.20116221177037    7.19079857145600    3.43568229065625
C         1.86583873193274    6.43999392611561    2.28822431596828
C         2.89625848594854    6.66638890167082    1.31829613478759
C         3.82046553298565    7.62924770116854    1.89226167854507
C         4.84098325717712    8.16577082635581    1.08151949185642
C         4.98129789172005    7.70913832959568   -0.20760011398572
C         4.13124361385409    6.71897842668493   -0.73347716055447
C         3.09811583618957    6.19797682184470    0.00486704184669
C         0.69894192468071    5.50076720408093    2.14005911829590
C         1.11467018883407    4.05308231524798    2.42145852698510
C         2.50822938535291    9.77325341346082    5.52269930036157
C         5.36571746032402   10.23585691204044    4.35178142561645
C         2.42367906781897   11.74994159421380    2.25730394010650
C         3.62584431926158   12.70594512262485    2.24136870115750
C         1.74317038094551   11.76271831264802    0.86967589971007
C         1.39820612092557   12.20537637052801    3.30956589988972
H         1.64027927847423    7.16715846941955    4.36593169789656
H         5.52750283184072    8.89623198822552    1.49187690960265
H         5.76577780022669    8.10522939806193   -0.83613135030408
H         4.29536620410738    6.37493017874533   -1.74366822389818
H         2.44476891540319    5.44432517298961   -0.41606005152511
H         0.29670724630313    5.56930497347037    1.12121047141865
H        -0.09393556579938    5.79219782809530    2.83832692738933
H         0.26693319312726    3.38163801611723    2.30679138268241
H         1.49537630085647    3.96341596213217    3.43639754726581
H         1.89947194898015    3.74514213277315    1.73431264738261
H         1.45365085594761    9.65668305876062    5.27855616382567
H         2.62623198685653   10.71445642136598    6.04916819347848
H         2.78317233419688    8.98470785751132    6.21570591827882
H         5.36787033220825   11.12102472510712    4.97854740099284
H         5.88094186780340    9.45117465570579    4.89444445110721
H         5.94466374578282   10.46050697352237    3.46281673708529
H         4.34853888113233   12.36947958611708    1.50085455382140
H         4.10575042444842   12.70808042976347    3.21576452318563
H         3.31110871913975   13.71792182546322    1.99961226177926
H         2.42376706396690   11.33742338004247    0.11860084358504
H         1.49877983018384   12.78330154072530    0.57551377976743
H         0.80657477535874   11.18125106846148    0.90316652252526
H         0.60245356059282   11.46145477021736    3.38809032950701
H         0.96468027351110   13.16360827860451    3.03228537353002
H         1.87981925423032   12.30701122417802    4.27810871733174

