30
CSD_code = QACNIS | q = 0 | S = 0 | Stoichiometry = C11H15BrN2Pt | MND = 4
Pt       -0.49556535814359    7.47882321127483    1.24682468591766
Br       -1.21646239249099    8.70687702847891   -0.60057311905134
N        -2.26129398896089    6.01473280592698    1.24103272333115
N        -0.00664580849294    6.40855007047322    2.79911341673053
C        -3.36754255417497    6.68974036620402    1.91368716127510
C        -2.71234069285282    5.52192660626532   -0.05638982565287
C        -1.74149407385715    4.90173217403726    2.04549278783903
C        -0.91859535633343    5.38912427660206    3.24584312248889
C         1.10974817443019    6.68575028574929    3.38179482140947
C         1.84772387670696    7.77892908125002    2.81649061666661
C         3.07237629126017    8.24037383328927    3.29976361958418
C         3.68696817695745    9.30995183069126    2.68083295245071
C         3.08497041784477    9.91753413946015    1.58757677842338
C         1.86522744384789    9.46638233716022    1.10044426072042
C         1.22373708684318    8.39358770765899    1.69922069542766
H        -3.03998865998516    7.11316210936911    2.86372097222495
H        -4.20107553499569    5.99870962935967    2.10345918498814
H        -3.72588014850919    7.50380300855927    1.28362053597854
H        -1.87933779182954    5.06540941987709   -0.59116441247079
H        -3.08119648568121    6.35529365993361   -0.65253891631114
H        -3.51497197791825    4.78047895279379    0.05372217395644
H        -1.08454536998511    4.30714180993816    1.40294830395221
H        -2.56093664309075    4.25279584259135    2.39349039863306
H        -1.58056678430326    5.81302766886715    4.01286478562961
H        -0.38620893460112    4.54292539969471    3.70001573602583
H         1.45774344538427    6.13125178352518    4.25137687970021
H         3.52917281579939    7.75908919636220    4.15348696696374
H         4.63553953803127    9.67468652884263    3.04692804263638
H         3.57216789818553   10.75383025946278    1.10725488472620
H         1.42287339091486    9.96197897630150    0.24805976580590

