45
CSD_code = QACQAN | q = 0 | S = 0 | Stoichiometry = C19H16N4NiO5 | MND = 4
Ni        4.23289577079225    9.60569484657366    3.92777597486537
N         2.24881298136507   10.30210576653339    5.55488240161940
N         3.20221322246703   10.85690103149142    4.78310152244774
N         5.28429058219725   10.84985531383851    3.08557849080175
N         6.23191805003764   10.28746490889862    2.31192131568296
O         0.23632882595347   10.18925169607802    7.20038793968280
H         0.93889401164060   10.59529270458870    6.63867795681069
O         3.13576715590647    8.35772248404598    4.79904380196375
O         4.26320883373698   14.10932083252597    3.94526061293083
O         5.31285772825879    8.35063872103568    3.04885319284813
O         8.24495385078421   10.15485285209575    0.66665969368609
H         7.54802285172372   10.56819590040014    1.22987427832321
C         0.32676275292766    8.86067114877055    7.08838239520015
C         1.29308063937078    8.21963128930552    6.28661719470908
C         1.31938722248610    6.82128257909417    6.22415419120908
H         2.07108965444859    6.36014243622823    5.60192003963349
C         0.41589385591295    6.06523129012146    6.93287993485455
H         0.44504990538202    4.98827797804978    6.87718329273810
C        -0.53720855746353    6.69972857852579    7.72411783442171
H        -1.24997798826700    6.11220545093283    8.28326481808978
C        -0.58150527432962    8.07432133570771    7.80143429948586
H        -1.31511122846109    8.57845333488596    8.41049386285751
C         2.27575717679910    8.96634697136784    5.50795208324429
C         3.26008449729295   12.15618950263522    4.75408290822867
C         4.25551230213084   12.88726552053324    3.94088692670342
C         5.24246466509480   12.14946540799709    3.12297393828666
C         6.18465460998141    8.95197951616416    2.34788564512453
C         7.15800576552772    8.19566379533763    1.56680941502267
C         8.13516873458334    8.82712539067723    0.77070777968605
C         9.03321580627366    8.03175941220676    0.05456542900629
H         9.77527393452490    8.52906291376396   -0.54985912103521
C         8.96850665489376    6.65758418754978    0.12364173879915
H         9.67407639845956    6.06268470489428   -0.43684120017570
C         8.00466562818100    6.03255103559580    0.90946860537072
H         7.96015653916370    4.95584594425811    0.95911492886450
C         7.11099781697196    6.79755458445484    1.62103492809182
H         6.35150133105926    6.34336873802070    2.23887886302205
C         2.30203637202061   12.97546565221477    5.55444224388812
H         1.27936084072761   12.75080681513481    5.25347031189213
H         2.51019516133311   14.03015660936828    5.40054451447551
H         2.39538554567644   12.72845404641081    6.61135430406951
C         6.21155292517801   12.96283794681529    2.32998775745933
H         7.23101177232617   12.72099957851863    2.62841816960573
H         6.01800840294152   14.01879580511445    2.49423552128820
H         6.11458227198486   12.72779344124004    1.27067926422040

