49
CSD_code = QACTIY | q = 1 | S = 0 | Stoichiometry = C21H21FeN6(1+) | MND = 6
Fe        6.51688291834034    2.98719207668728    2.66100434503412
N         5.67667050069356    4.26471071400078    3.80228249461948
N         4.80075027802266    2.63417511215385    2.16495923528183
N         7.05368488123434    1.50122665361520    1.42432921136913
N         6.76555498293943    4.13510956740423    1.13553925018787
N         6.72965084624028    1.61169428050090    4.01822761505358
N         9.35884948283453    3.73923620173598    3.32552392094218
C         6.23214744510195    5.10368951422959    4.67311518049734
H         7.31090867310473    5.07686834281139    4.71325712197899
C         5.49328129902055    5.95738942307859    5.47080127035164
H         5.99267129746130    6.61827898664259    6.15949588000742
C         4.10383188771679    5.94957956567750    5.36592432571230
H         3.50362938524302    6.60674044073118    5.97476687118516
C         3.51110924832443    5.08572480799763    4.46804389376720
H         2.43987928482069    5.04425160874485    4.35112338343644
C         4.31965255213305    4.24874820201706    3.69524061185458
C         3.85237657096886    3.31714965047565    2.71384965450655
H         2.80588992624062    3.22756396476970    2.44849122453809
C         4.62377146564395    1.72958035609618    1.06803413396400
H         4.63716867490054    2.30909903185763    0.13663336378368
H         3.67492879860387    1.18548191683712    1.11535326996070
C         5.81185903321396    0.76604573865530    1.11266818772845
H         5.63555598913744    0.05578731554266    1.92272714433034
H         5.90452371783373    0.20685757532991    0.17520172178795
C         7.68351158356038    2.08995184428085    0.23826262223475
H         7.49853325495597    1.49483265746949   -0.66391400536503
H         8.76567743814713    2.12586959033005    0.40026467801775
C         7.23735709063359    3.51401260935637    0.04463055232174
C         7.37413018120612    4.16109207654100   -1.17351720962833
H         7.75360889460792    3.62268318037056   -2.02764154797569
C         7.03381675609143    5.50073843541638   -1.27214880187896
H         7.13631655009644    6.02698898657179   -2.20741987584589
C         6.56919805512558    6.14552094068051   -0.13572723256658
H         6.30518255625587    7.18986845650061   -0.15604253244674
C         6.44870243072705    5.42533854855330    1.03750675729722
H         6.09426614835645    5.89349820051310    1.94254349227304
C         7.96113079767221    0.64502094320265    2.19886739481068
H         8.93435799792726    1.14224601809779    2.25882575539904
H         8.09300524339518   -0.34371830835517    1.74269752466407
C         7.43648940291660    0.54636611319667    3.60397689337863
C         7.69393724428858   -0.53839714774970    4.42476315390398
H         8.26642474059855   -1.37188827362818    4.04978060990544
C         7.22034496398914   -0.52882682248905    5.72786655469371
H         7.41562887221436   -1.35650014756115    6.39033905445814
C         6.49137058063004    0.57100388415520    6.15326976195575
H         6.10216375177684    0.62707407659771    7.15639242865789
C         6.26886138946231    1.60913441569026    5.26771675440609
H         5.70487780503769    2.47897797405977    5.56689381655713
C         8.26877713055372    3.46213070060622    3.09332008889373

