46
CSD_code = QACVUN | q = 0 | S = 0 | Stoichiometry = C15H26Cl2FeN2 | MND = 4
Fe        6.03862341994191   10.78265752204818    8.79199476440959
Cl        8.01311777241141   10.44465452767845    8.83462460491513
Cl        4.10792282991726   11.11756266549554    9.21095414010244
N         5.53435328889033    9.40936279371174    6.66726182765847
N         6.12981298794564   12.16232343446785    6.61452857075755
C         5.36070956096637    8.20438136819421    7.48473784454042
C         5.28751552212651    6.89857551800859    6.68754970486730
C         6.54083015678388    6.76465461054586    5.83049098820427
C         6.66581214207430    7.99155653005574    4.93303907521084
C         6.69529055827549    9.27582556449633    5.78052591458326
C         6.85946948292408   10.52184253104709    4.89598346865885
C         5.58715162973382   10.79013939908517    4.10194709146310
C         4.30951868431358    9.78900999733696    5.96864152925774
C         4.49014380820932   11.05533354113869    5.12540827481248
C         4.82082539646074   12.29836682144570    5.96646755181418
C         4.68860925573792   13.58563726471307    5.13352902627896
C         4.98223320029750   14.80912740351819    5.99556045209168
C         6.37635431228326   14.67305100145774    6.59649565608964
C         6.45708468064615   13.36436654391109    7.38814193740158
C         7.19839236028319   11.78534529838612    5.69346015265399
H         4.45442281657101    8.32979812417148    8.08396969565206
H         6.22281651502077    8.13915288368695    8.16266164779441
H         4.40009984439540    6.89191555867566    6.05189899477147
H         5.20538080343819    6.06123469737473    7.38187617574520
H         7.41794478747892    6.69567037071813    6.47819843317795
H         6.49602450118109    5.85676953225406    5.22493955962642
H         5.82581294175700    8.00733767651329    4.23755047163227
H         7.58403139711673    7.93530682520341    4.34569307543798
H         7.57129198470273    9.21203158747092    6.43859912072077
H         7.69616215996576   10.33237535780736    4.21446097863849
H         5.72771366639951   11.64476502019939    3.43950449511193
H         5.32225995163027    9.93762342721199    3.47582240825848
H         3.53864216169594   11.24686066297641    4.61709766015179
H         3.54311854091044    9.96379550363593    6.72806204867404
H         3.95005632128298    8.99099901012183    5.30083897631290
H         4.08672738722449   12.35979516823436    6.77996891602701
H         5.38112124049969   13.57296065982683    4.29103051230627
H         3.67552572979382   13.64348250783461    4.73163398879029
H         4.90991812752512   15.71952104819305    5.39656430762322
H         4.24522870652240   14.87422976226074    6.79936780351880
H         6.58988769974057   15.50784825287606    7.26543012036750
H         7.12573139225570   14.68267143874864    5.80281624036179
H         7.46131065873533   13.23724183076001    7.80218615503879
H         5.74085508110456   13.42669691879099    8.21892554147257
H         8.09579549969827   11.60818272019504    6.29175418524229
H         7.42384903313049   12.58575911751576    4.97200591177383

