56
CSD_code = QACWAV | q = 1 | S = 0 | Stoichiometry = C29H23AuClNP(1+) | MND = 4
Au       14.20691297641032    9.86776647812757    7.66971210298103
Cl       15.69020539324621    8.16374211323236    7.99241239727100
P        12.74955755735110   11.61251063503170    7.42160620230981
N        13.10646348520818    9.48617666436148    9.51312179947479
C        11.79615414972605    9.71224977937111    9.67881406586269
C        11.23723769045738    9.72521940638383   10.95742633041617
H        10.18735022506918    9.94340727740241   11.07281107735284
C        12.03191011089844    9.47676585493143   12.06140941725004
H        11.60883943105433    9.49167289340822   13.05393944682940
C        13.37459988097018    9.19255036461898   11.86324619745039
H        14.03080967109307    8.96185845182269   12.68593396482846
C        13.86631934746581    9.21598813870670   10.57298309306209
H        14.90112076722343    8.99070142975220   10.36005094643649
C        15.20682013055680   10.37436804148919    6.01293703461637
C        15.83432148245241   11.60466135437684    5.96375820375543
H        15.80964234157065   12.27896555301956    6.80913151315384
C        16.50843929269600   11.98172132868449    4.81165265395764
H        17.00013288941732   12.94172598966676    4.77808071387769
C        16.54853251365276   11.13102328918679    3.72188301578716
H        17.07588655321721   11.42459861498368    2.82742395770316
C        15.92157203846071    9.89998506575096    3.78365083803115
H        15.95801473308514    9.22309825167725    2.94409667084516
C        15.24637781376071    9.51546753814364    4.93422943704906
H        14.77552154214342    8.54576496242972    4.97847226099678
C        11.14613561916566   10.78765553180377    7.46726209536130
C        10.89172863769567    9.90129743212798    8.52641635794371
C         9.68960381385431    9.19727185545573    8.52258109471722
H         9.48759764350578    8.49145994121598    9.31433218998337
C         8.76706930806277    9.36400972120308    7.50379569249211
H         7.85004453786997    8.79618084843591    7.51628470655261
C         9.01623719848956   10.26119202770688    6.47876708865855
H         8.29141129629802   10.40769330772389    5.69328629401123
C        10.20542335223262   10.96874964907907    6.45884291327563
H        10.40620734710905   11.67104770565954    5.66197532796481
C        12.76841208685574   12.67761539758227    8.87644129389812
C        13.92245963865596   12.76481639889861    9.64977482011626
H        14.80536200458613   12.20615355523364    9.36268493719527
C        13.92714487749469   13.56084779242984   10.78097070933883
H        14.81984248288677   13.63347447133411   11.38297246966656
C        12.78598830536721   14.26211673363994   11.13875897018543
H        12.79233418363373   14.88067713960486   12.02275321770443
C        11.63620571951962   14.17359185030708   10.36758735122414
H        10.75146989288998   14.72292408918349   10.65060572555088
C        11.61970806003862   13.38126964919927    9.23494329212264
H        10.72879846619165   13.30276468603765    8.62568280724020
C        12.83640753072160   12.63657474558638    5.94853275167717
C        13.06112710484438   14.00785370636952    6.02658893392948
H        13.10968803073058   14.49706774303693    6.98965053181558
C        13.21627685026337   14.73451580361497    4.85907907937136
H        13.38534478782384   15.79907505092301    4.91108545968174
C        13.16246915340716   14.09900732380728    3.62904642898998
H        13.29029008136382   14.67145075338308    2.72355877223327
C        12.95074943016670   12.72925406721908    3.55402038860153
H        12.91487173861818   12.23743722786383    2.59439082420266
C        12.79436717837558   11.99200017425760    4.71025994031487
H        12.64558162409458   10.92046414351655    4.66828419268116

