97
CSD_code = QACWOG | q = 0 | S = 0 | Stoichiometry = C46H45Cl2NP2Ru | MND = 6
Ru        0.46719494701835    2.51645675330131   19.98551473567186
P        -1.57279510582259    3.52216441468387   19.98932940520914
P         1.88066431446373    4.24497352541448   20.36210820636643
Cl        2.57609591881676    1.48323753026218   19.64981317018974
Cl       -0.70540872538190    0.60852532994742   19.15548297410563
N         0.55380165526480    3.31386903763823   17.78830334053925
C        -1.66363094792356    4.34465722568263   18.34070015874348
C        -0.83720142598010    3.51866034813555   17.35508690870742
C         2.50782837186574    4.60878498918807   18.66500389113219
C         1.33220756592395    4.56109381436932   17.68662727466593
C         1.17352731076149    2.25035948886584   16.96823418985756
C         1.05064195707836    2.38086689189497   15.44683626813105
C         1.92033846585261    1.32257560813729   14.77760567405195
C         0.30940002454747    1.89133094726166   21.76927751732098
C         0.21228345364484    1.31659155432566   22.86391337947909
C         0.14379341692985    0.60926936734206   24.02173860186186
C        -4.30282366016477    2.86563594607466   19.57024070787244
C        -5.43108844159995    2.10298079789731   19.81548514687691
C        -5.36947512205511    1.01845511100164   20.67407561260426
C        -4.17554010106372    0.70092123578731   21.30047562874949
C        -3.04529246281092    1.45681715273966   21.05520589565876
C        -3.09613744739872    2.53316789072415   20.17436087241135
C        -2.52862390218224    6.07985252264071   20.85385633421923
C        -2.90762460831619    6.95651207013374   21.85620345908934
C        -2.80783212531067    6.58651750518483   23.18541255825256
C        -2.31527845188657    5.33447167789126   23.51890444132124
C        -1.92373008511701    4.46310721183331   22.52266275911796
C        -2.02973732849854    4.82692538721385   21.18219067618150
C         3.49818088795667    3.07494317895784   22.29718233194117
C         4.60710535838821    3.00298879083922   23.12076029039368
C         5.60166811915443    3.96227676417645   23.02911944027811
C         5.48347372687493    5.00114685308393   22.11919422414782
C         4.37249014735831    5.08393994683440   21.30091703742267
C         3.38079817694859    4.11092037739996   21.37880494157910
C         0.96013217698054    5.83654752836850   22.35743776338166
C         0.48921319615417    6.97316192293662   22.98061461478409
C         0.30938484869135    8.13579200356134   22.24738211992769
C         0.61065168990685    8.15245965212472   20.89763302231551
C         1.09826972038214    7.01585589601910   20.27408890145418
C         1.28000994015304    5.84720387785058   21.00107687001783
C        -1.21620144847472   -1.14450622668601   22.94282268289164
C        -2.16179248554093   -2.14755274995456   22.99880312720597
C        -2.73923713912638   -2.49590786859757   24.21085019884629
C        -2.36739541413071   -1.82941254462512   25.36819547393132
C        -1.41795841963166   -0.82754473871739   25.32216062001967
C        -0.82280484736432   -0.47387671188337   24.10737586452781
C         1.49802560944825   -0.02352916955623   26.01176075151155
C         2.40470264410798    0.31018728543646   26.99870745270117
C         2.88448984677904    1.60661050661333   27.10170903883579
C         2.45784767783269    2.57235116157571   26.20221407118689
C         1.55399924764426    2.24553137150701   25.21342398088140
C         1.05175873985360    0.94335554295277   25.10560148301320
H        -2.68869946137167    4.42642078230223   17.97331180614830
H        -1.25543857141392    5.35400228641973   18.45660793068808
H        -0.86535764434203    4.00347787638737   16.36755515962526
H        -1.29618540049999    2.52680681426131   17.27596365345667
H         3.00729878894131    5.58021319415559   18.61339510692408
H         3.23933892433252    3.82499641859922   18.44529832606972
H         0.66866387500754    5.40095320484946   17.90859420493288
H         1.70449116191413    4.69702819774436   16.66193222091480
H         0.72272191224991    1.29756778951773   17.26556066787948
H         2.23276252939890    2.20526941911628   17.23062250065628
H         0.01543664804936    2.23420537234176   15.13239870978169
H         1.36954368884599    3.36956166292116   15.10439259241604
H         1.82409964845174    1.37607301410407   13.69539813130137
H         1.61979564595915    0.32981589040902   15.10296319331971
H         2.96695674757694    1.46323977433499   15.03895341402043
H        -4.37802358279857    3.71778431295760   18.90939604241367
H        -6.36373695451449    2.35897513376173   19.33318179079316
H        -6.25297881636730    0.42402135265772   20.85539265173164
H        -4.11989476078049   -0.13947915240745   21.97703187085575
H        -2.10526567221038    1.20335984767370   21.52570132353070
H        -2.63237895037558    6.38293012541820   19.82251314674420
H        -3.29101204528520    7.93219865223323   21.59462035565782
H        -3.11413236049974    7.27307925485968   23.96079567735754
H        -2.23672176238966    5.04117530168695   24.55551864335624
H        -1.52354159208843    3.48526453105988   22.76285578689129
H         2.72350774688494    2.32107585414298   22.34543875409234
H         4.69364526844285    2.19570577919474   23.83328207484505
H         6.47120824926746    3.90334279487142   23.66750486206807
H         6.25861516126775    5.75111889752697   22.05107520867546
H         4.27255695308564    5.90586783530809   20.60495201363885
H         1.09576200269881    4.91406039277248   22.90858888825876
H         0.25846269482239    6.95781396588805   24.03536813370745
H        -0.06365760482391    9.02756369740298   22.72862220488593
H         0.47246558060512    9.05851520739991   20.32471928889972
H         1.34468920687456    7.06003942623277   19.22261323192648
H        -0.75724347868586   -0.88002367116934   22.00106873247646
H        -2.44940548656194   -2.66043609261617   22.09293190654924
H        -3.47962581095366   -3.28136034045620   24.25379247233495
H        -2.82470413249820   -2.09055806562259   26.31187371295045
H        -1.15662048620066   -0.29027335617485   26.22296888319990
H         1.15752198774794   -1.04415022164121   25.91499603320582
H         2.74759835122192   -0.44748615832920   27.68839204451648
H         3.59428631718533    1.86140209286719   27.87479337609056
H         2.83579316613448    3.58219113537150   26.27159431680551
H         1.21543285666833    2.99512578388777   24.51248286181074

