75
CSD_code = QACYID | q = 0 | S = 0 | Stoichiometry = C27H36B9P2Rh | MND = 7
Rh        6.88905102241449   11.10447250983960    1.03460190566266
P         7.29836600518519   10.22069108793390    4.35863445927891
P         5.18255410854914   11.17602550647993    2.50246955903038
B         7.14963099865905   12.55894118032319   -2.08349710801723
B         7.61922040909609   10.99816663813928   -2.79396358994398
B         8.74701315127472   11.87143026707060   -1.78536556451740
B         7.78356536040469   12.49398341387938   -0.41230139653129
B         6.03502862985605   12.19238342824891   -0.75557342434453
B         5.97534267536286   11.21078686790952   -2.24403380424909
B         5.64116723458462   10.49741214579899   -0.65320139204589
B         6.88941351814403    9.66556821819874   -1.82587748332100
H         6.41503152499256    9.43230693152396   -0.64817495091357
B         8.20298071463405    9.10490418726266    3.09784578539233
C         5.47882688443796   10.24657056897140    4.11321473612448
H         4.96448711206157   10.69783534014677    4.96400593174702
H         5.14912483203158    9.21209523578520    3.99335928604220
C         8.41981574984807   10.20452492163260   -1.49799981199641
C         8.55026292462652   11.07568419952810   -0.28779944800281
C         7.53048858904420    9.74692601722673    6.09759163312586
C         6.64927082461388    8.89596600476846    6.75451382319247
H         5.75873904220879    8.54647723133019    6.25154214498083
C         6.90962754497325    8.49215200677580    8.05232014271447
H         6.21807402995050    7.83530041519539    8.55945735326992
C         8.05450388913351    8.92539425094773    8.69962577292640
H         8.25499033183306    8.60900792013044    9.71231337876939
C         8.94640311196700    9.75951370374625    8.04384590983911
H         9.84423458030607   10.09128065574880    8.54412258234519
C         8.68897303550498   10.16357671567132    6.74782364182671
H         9.38275943333063   10.81037335375897    6.22734630363015
C         7.69650463714787   11.99712329597935    4.37966944499311
C         8.45705449448218   12.53063758284921    3.34577254176704
H         8.83954080329777   11.87313786980468    2.57230521567618
C         8.75410403197300   13.88340412138905    3.33080166410436
H         9.34704640496362   14.29615522697158    2.52857719581464
C         8.28942544638139   14.70425315246272    4.34407621076930
H         8.52013230472499   15.75894638837842    4.33359487359056
C         7.53168272727751   14.17505205628371    5.37716590257843
H         7.16968648361919   14.81677224648127    6.16666033335872
C         7.23583133124880   12.82551543508359    5.39803664599807
H         6.65177139478153   12.40907887554277    6.20754949848795
C         4.81556078000938   12.83243988647766    3.19681760786340
C         5.45504395316678   13.92527013343457    2.62600025591997
H         6.12321637978115   13.75994192704659    1.79118410616811
C         5.23399707758565   15.20123720808074    3.11279517529110
H         5.73518564387685   16.04417999494339    2.66092012658469
C         4.37030500381816   15.39591025277901    4.17670895144814
H         4.19864735656016   16.38983964136949    4.56338053834546
C         3.71358867724408   14.31293369524019    4.73943378162252
H         3.02610822859766   14.46467030732252    5.55941005205242
C         3.92932698016120   13.03848140390741    4.24977357905901
H         3.38784619951491   12.20464448286898    4.67679605543336
C         3.48539045011052   10.58248587746528    2.15562871533361
C         2.45413017600998   11.46196963678422    1.84449543929182
H         2.63087099046516   12.52663336821220    1.88162634092012
C         1.20830171289574   10.98084508636364    1.48349546786857
H         0.41328372072676   11.67395809041132    1.25060204578094
C         0.98078280004645    9.61703797707455    1.41090156990380
H         0.00753814600371    9.24313407077326    1.12956803638384
C         2.01286744378015    8.73291629196761    1.68089333396685
H         1.84764226728567    7.66826819167322    1.60101551953291
C         3.25795239958762    9.21322742781278    2.03861801026895
H         4.06988316150137    8.51888366919047    2.21012880053933
H         7.04058887797570   13.56298541982939   -2.69107812058062
H         7.92571295250475   10.72781650759597   -3.89773700903982
H         9.82842089457040   12.21403495255326   -2.09328339451248
H         8.17405750776688   13.43040708758559    0.20777000785773
H         5.20329394044983   12.98353458744896   -0.46427742507603
H         9.23999112640132    9.51393667045121   -1.67441841502336
H         5.07429960661063   11.25122371303965   -3.00373673885808
H         9.47611209416027   10.92773134697076    0.27646613776026
H         4.56262567260698   10.08692870399742   -0.39324325469730
H         6.76640943097960    8.64462890508889   -2.40942669625941
H         9.37237503376040    9.23314916286793    3.27787833412592
H         7.80659646815898    8.00317857071866    3.32371571655232
H         7.83581951641058    9.49990857544940    2.00232144500751

