63
CSD_code = QADFAF | q = 1 | S = 0 | Stoichiometry = C24H30F2MnN4O2(1+) | MND = 6
Mn        5.29900941638139    0.31088743637867    2.89149320369317
O         5.84089152811671   -0.56428559166364    4.40669844501626
C         6.04733536949337   -0.00864256258353    5.56666838452818
C         7.05732645366689   -0.52344527828042    6.40881869944067
H         7.59750282057225   -1.39743485612447    6.07620996572204
C         7.38536562913058    0.08681720834249    7.59363562614417
H         8.17682469852042   -0.28865423206228    8.22195362225085
C         6.68229657315435    1.22652910815478    7.97256797646152
F         7.02978963338429    1.86208201479432    9.10332182570578
C         5.63173874385077    1.71311690024079    7.23035506133919
H         5.12239936916028    2.59654777870129    7.58089687051635
C         5.27412913009557    1.09877096121975    6.02433644949551
C         4.06005542148824    1.45188610431686    5.30715830610014
C         2.92883738874959    1.99726295452812    6.13967129966194
H         2.70160916446038    3.02254016072343    5.84700966146366
H         3.18116772781568    1.98630135547243    7.19353892279083
H         2.02933870828794    1.39738088884443    6.01506607491429
N         3.94002993766239    1.20121549163963    4.03766081598289
C         2.62260889784181    1.33947383370537    3.42722512817750
H         2.74078704177740    1.72139466518249    2.41218140748240
H         2.00149855421629    2.05265537161859    3.97116568097145
C         1.91076465717236   -0.02299610236463    3.36288872094928
H         1.97604220632834   -0.51988202404465    4.33494182026171
H         0.85699412008748    0.14670853617968    3.13920295747203
C         2.49144626931244   -0.92923764493949    2.27943516882144
H         1.87915033051066   -1.83865468085689    2.19924316516955
H         2.45767839461132   -0.40832427135429    1.31839315623239
N         3.88884088591370   -1.27460790346359    2.55129967316961
H         3.90961563212411   -1.83186645399994    3.41057468857069
C         4.47097708307136   -2.09160463349996    1.48320201821943
H         4.33080125165142   -1.55858016592044    0.53805072079907
H         3.97564554891470   -3.06866910362688    1.40785337644022
C         5.95936143962896   -2.27666316443965    1.74912379755218
H         6.10143464721980   -2.73642684862614    2.73175386951546
H         6.40062147649499   -2.93596352786913    0.99004892511372
N         6.61256350675821   -0.96515696555329    1.76756889954412
H         6.58703387992515   -0.59519434874942    0.81275537789854
C         8.01774695283308   -1.05784761895510    2.17119101167038
H         8.57955865243905   -1.68767091790978    1.46688373394151
H         8.05070511957435   -1.53262660095011    3.15584274837002
C         8.67511697716754    0.31789762232555    2.25534147447403
H         8.60874036319515    0.81954015741313    1.28579473890128
H         9.73030740861878    0.17962098990328    2.49362658499512
C         8.04064459851147    1.20366851693235    3.34168931871880
H         7.91604455420439    0.61083930058637    4.24901609183401
H         8.71415458812710    2.02730321617412    3.58300250921556
N         6.73458758869933    1.68820018047568    2.90976951873249
C         6.66179842900146    2.87151076546519    2.37779771469699
C         7.84185682340854    3.80547737716323    2.30288217197700
H         8.11479490760936    4.15377973416943    3.29924275839955
H         7.61647818494054    4.66716391357687    1.68508634334256
H         8.70483276264763    3.30807442673839    1.86427239224316
C         5.44985670945061    3.31305783535031    1.70751953990451
C         5.15831460471829    4.66845673447142    1.51357193498530
H         5.72254356972065    5.43969438529026    2.01327742276860
C         4.10488360787752    5.04484017999611    0.71355719723713
F         3.82506801858068    6.35141775679995    0.57909278911724
C         3.33132081518045    4.11240762440982    0.02880904769445
H         2.53821151877054    4.44590576432806   -0.62071839427389
C         3.59338108426914    2.77809583148664    0.21570178020275
H         2.99783121394875    2.02854430058903   -0.28416108019790
C         4.60693590807423    2.33900617587025    1.09575634273368
O         4.75277150088246    1.06276193830049    1.31288454473196

