29
CSD_code = QADFAC | q = 0 | S = 0 | Stoichiometry = C10H12Cl2PdS2Se2 | MND = 4
Pd       -0.00006102901485    0.00011210820511   -0.00034479675079
Se        0.53277220553838    2.02243525844177    1.06043077064142
Cl        1.93656001381838   -0.30899928406183   -1.20649392050437
S         1.51253122211197   -0.60398399241686    2.48042281899194
C         1.59276088689052   -0.75859998855041    4.18666050057250
C         1.21019275002631    0.37580221826646    4.82978899455060
C         0.83803585736227    1.40892357629562    3.94372955556337
C         0.95563518628863    1.03563292332288    2.63778537140433
C         2.36780850030859    2.51659837935350    0.59757378447685
H         1.92324832413268   -1.68214181212655    4.61907241152890
H         1.18712195643765    0.47666681075953    5.89996624756172
H         0.48852024402381    2.37880342731485    4.25112533624996
H         2.95995245807690    1.61188366791606    0.46956122645422
H         2.77959714904228    3.15063443484773    1.37992985888929
H         2.32984369947083    3.06073151406149   -0.34374880514361
Se       -0.53273383872051   -2.02251995577951   -1.06043198484754
C        -0.95562088867335   -1.03568066789892   -2.63775729789818
S        -1.51243234666107    0.60395911670410   -2.48035436431820
C        -1.59276477071239    0.75859108872824   -4.18659173223456
C        -1.21019588105249   -0.37579345531904   -4.82974788589702
C        -0.83804448725586   -1.40893925927416   -3.94371478339496
H        -0.48852525769192   -2.37880794948171   -4.25114737817875
H        -1.18714670084961   -0.47663449988475   -5.89992886574857
H        -1.92324577956139    1.68213813405090   -4.61898926329967
C        -2.36781094158838   -2.51658689086861   -0.59757312646945
H        -2.95994042222556   -1.61186119652131   -0.46956737042947
H        -2.77966532783186   -3.15064984695025   -1.37987516499160
H        -2.32984348697939   -3.06068121649863    0.34377172185284
Cl       -1.93654929469895    0.30896735736205    1.20644814137480

