57
CSD_code = QADFIM | q = 1 | S = 0 | Stoichiometry = C23H30IrN2O(1+) | MND = 8
Ir        3.76064932725462    3.91590024128936    3.32313850624532
O         3.32123787241189    2.10172184753207   -0.42824017170875
N         2.95008329836956    3.30423866383520    1.41068307210219
C         5.32796452412438    2.85420916652912    2.50595090691007
C         6.55560720113659    2.59244133473251    3.08949816030803
H         6.75844214388872    2.89968705167899    4.10348194672577
C         7.54702274997155    1.92196741409460    2.38429953922517
H         8.50071089357179    1.73938094597287    2.85648232569683
C         7.32712419884534    1.48252534250812    1.08740923152938
H         8.10785467575112    0.96539084761278    0.55214731690977
C         6.10108514440000    1.69636005765510    0.49085558514257
H         5.89066351094542    1.34835675436303   -0.50847558436034
C         5.11300553454944    2.37516183875429    1.20161956692053
C         3.78002820294897    2.60743559363897    0.70143376941987
C         1.94499044293889    2.46816066024848   -0.53121218048304
H         1.34808587625201    1.55365024989356   -0.56980316651255
H         1.80609869517727    3.02691112057514   -1.45923819829469
C         1.65318188385350    3.32505190463691    0.73065833847470
C         1.26315080697532    4.75058358280335    0.34943357012461
H         1.09457112155872    5.34103006409842    1.24271009356635
H         0.34773001608966    4.73738213878355   -0.23621006520779
H         2.05116196505798    5.21326019841154   -0.24063984441457
C         0.59213083366135    2.69212329078207    1.62905620956067
H         0.86187120707937    1.66647941705021    1.87140633274061
H        -0.37202217157546    2.69745257827069    1.12845528429910
H         0.51035547476452    3.25526772316166    2.55529199808817
N         3.17590853909786    2.22587883956953    4.04354198044095
C         2.82401022252391    1.25204110219673    4.55300078343055
C         2.39594183863948    0.04100153304301    5.16959037092601
H         2.82512201872626   -0.03680536848561    6.16878998953813
H         2.72971611738595   -0.80937933528230    4.57455976945335
H         1.30845853930394    0.02082904839665    5.24553619203592
C         4.45994520667142    5.02585756775794    5.06752285030427
C         5.04065251259737    5.65004142715093    3.91220414943527
C         3.96592260196614    6.11377017187948    3.10007688185617
C         2.73359275659774    5.99340529638589    3.86816347507138
C         3.03196730963444    5.32612763571054    5.05628998433659
C         5.20189222606319    4.57900889696967    6.28643192165710
H         6.18236958414095    4.18474298199194    6.03396385047484
H         4.65127686029185    3.81188841797155    6.82588433837636
H         5.34172494954344    5.42838447522993    6.95660042646384
C         6.48910047910706    5.91617739249395    3.66529362429583
H         6.76218712535388    5.73180737556290    2.62894003682775
H         7.12170652848201    5.30622049715052    4.30216583043416
H         6.69500309188467    6.96425959483444    3.88734337399750
C         4.13692147485026    6.96051043201617    1.87932804759496
H         4.29757499009941    7.99801503581076    2.17731830637110
H         3.25977652777511    6.92480793763064    1.23866639697214
H         5.00035842309531    6.63861930487280    1.30183978342234
C         1.42959115792172    6.65283017090729    3.55877789256720
H         0.59480655342469    5.95428449282097    3.61393026740684
H         1.44069233621829    7.11623993411176    2.57637058460713
H         1.24565148955096    7.43705408115257    4.29454793193405
C         2.09687008087722    5.09308948912890    6.19534403206425
H         2.16132409702764    5.93075420140729    6.89167586013298
H         2.35035768959904    4.18689697450750    6.74085199176894
H         1.06739124154700    5.02021036620621    5.85245653279569

