63
CSD_code = QADFOT | q = 1 | S = 0 | Stoichiometry = C24H30F2MnN4O2(1+) | MND = 6
Mn        2.19330193864392    3.87711353461486    3.09963229144451
O         0.40549694476618    3.65628285586221    2.76603467235430
C        -0.09702143160534    2.93933572484053    1.80123431391529
C        -1.32505602939787    2.27203503770370    2.00361859249954
H        -1.83242666054636    2.42034009214513    2.94531998447774
C        -1.84442155150848    1.42100013054443    1.06024782222747
H        -2.76709651625204    0.88904337446557    1.22701378935141
C        -1.14425250040622    1.23713454335839   -0.12831926480632
F        -1.61508492361405    0.36604707891449   -1.03550292785696
C         0.00827769491161    1.93322137012682   -0.40834434806471
H         0.50131695047244    1.75211236916489   -1.35005128697119
C         0.54738078333531    2.81535890155914    0.53538127729920
C         1.64161951621911    3.71681397447173    0.21417962396441
C         1.75885856201393    4.13270885079624   -1.22907134969463
H         1.72106651713582    5.21595027077060   -1.32564833824350
H         0.94410425063936    3.72671593621381   -1.81708684192312
H         2.70082664808088    3.78262678472086   -1.65107153385042
N         2.39359302909093    4.21091948788238    1.15148882389271
C         3.30322724129640    5.29748598548304    0.80615083057943
H         3.57828099393318    5.26967831067047   -0.24923122773068
H         4.22244658125370    5.18704690348602    1.38321582001195
C         2.67016987491800    6.65899473964195    1.14157094275667
H         3.25029878119147    7.44166419742961    0.65156286415997
H         1.64949796278805    6.69718949103358    0.75060412876324
C         2.65860174204453    6.93775607652983    2.64303300929573
H         3.67709043064391    6.85331648205195    3.03229705747678
H         2.30664510395501    7.96386557525576    2.82031872506165
N         1.82290127636231    5.97676744910473    3.36706957213295
H         0.85543478700838    6.11275589813000    3.05922792295120
C         1.85871768275505    6.19874929984550    4.81503252690300
H         1.42349847260424    7.17017650285530    5.08441160154875
H         2.90622285781072    6.18917902995199    5.13073688632035
C         1.10476437732364    5.07429897333580    5.51332953018046
H         1.07354552324788    5.25512417591280    6.59592157352704
H         0.07738412563599    5.03416478116009    5.13925456164437
N         1.74784502326313    3.79540366926074    5.20036005174858
H         2.66264537980216    3.79035371985038    5.66113244758038
C         0.98460789929382    2.65619996301916    5.71598171740755
H        -0.02179948671994    2.70972390846604    5.29138423104884
H         0.89955384544116    2.71379987726556    6.81037025801752
C         1.62325086192618    1.32460851649407    5.32714260730978
H         1.05141813914531    0.52079331646167    5.79204168529512
H         2.64653493837279    1.27943424874921    5.71040398187614
C         1.62956725547944    1.10408845430167    3.80451092983435
H         1.79140779548071    0.04744482061859    3.58607680801190
H         0.64845820683649    1.36984818711623    3.40833761359104
N         2.63979943788029    1.94318667575743    3.16992596040977
C         3.80251799730760    1.42111684165640    2.91705055275453
C         4.10607117455237   -0.03793492020296    3.13765720461983
H         3.82730394910198   -0.34523140034409    4.14371369176671
H         5.16520253138359   -0.23594742183825    3.02058846283853
H         3.55604022372301   -0.65306320546582    2.42540765644346
C         4.92312823003764    2.25712157649475    2.51921341142143
C         6.02636569751274    1.74320477094242    1.82765946225185
H         6.00700484005697    0.75348372361647    1.40010226867543
C         7.14683954525134    2.51709272322797    1.63563311602937
F         8.17335046423367    2.01241084528350    0.93200687905734
C         7.25350537314392    3.80097897566093    2.16195864442664
H         8.16355556263970    4.36259929267759    2.02599768764998
C         6.17782362588536    4.32711509463737    2.83275743623720
H         6.22014613333703    5.32846970305876    3.23494264134042
C         4.97191323711320    3.60645954650427    2.97737821484824
O         3.94603108176531    4.18576430669535    3.53350275190641

