102
CSD_code = QADJEM | q = 0 | S = 0 | Stoichiometry = C36H57Cl2N2O3PPd | MND = 4
Pd        2.62667413935530    7.28464447963028    5.27808964514466
Cl        0.76441621370360    6.14224502105378    4.56853229418554
O         0.54907085001216    9.82997827514829    4.56325004466438
C         3.79263894120742    5.74650037250160    4.77308005705493
N         3.87418286510965    5.28319181849216    3.51076616437686
P         1.27181819836414    9.05163015030446    5.76227731062727
Cl        4.39542908920852    8.29738689671734    6.29311257757231
O         0.02863249796284    8.60332416234147    6.65192378828701
C         4.78567282113374    4.26216041217861    3.43696375792630
H         5.00968707854053    3.75962054151621    2.51922691468931
N         4.65871426948705    5.01369248041665    5.49213220896799
O         1.72355164030840   10.31251576081097    6.63084804591672
C         5.28149815589748    4.09440462387428    4.68328202697521
H         6.00594233024159    3.40371635451734    5.06246388172887
C         3.11203342441307    5.79715958802346    2.42598353996871
C         2.14083633609263    4.98951125208070    1.82510397187957
C         1.39274119205190    5.53359298152064    0.79002976805554
H         0.63328621053373    4.93512979955140    0.31281820014956
C         1.59631838374052    6.83308449479782    0.36989694416838
H         0.99503853283566    7.24147744885230   -0.42904608730942
C         2.57558237487521    7.60806333130626    0.95942559817426
H         2.74062356721742    8.61333691151636    0.60489544729176
C         3.35385748302453    7.10878081175226    1.99784672673565
C         1.90041991562715    3.56135806919113    2.25511528335694
H         2.46376901964461    3.36128197070417    3.17077700636460
C         0.42556997200433    3.31160779641937    2.57308142077800
H         0.07947823417450    4.04923700010379    3.29198567071147
H         0.30506987230711    2.31836452012924    3.00015851313996
H        -0.19055811172720    3.37515121990409    1.68046304629695
C         2.38710508106606    2.60157637566853    1.16455355329771
H         1.81726717612614    2.74447113000502    0.24963039332779
H         2.26153075681197    1.57158058904200    1.49065296427234
H         3.43861932043846    2.76525153375487    0.93559825688901
C         4.49329054988231    7.94483700628507    2.54555175622339
H         4.89929421056841    7.48740745838565    3.45662218710655
C         5.61873174581349    8.00120414104696    1.50782385432324
H         5.97356446619315    6.99964883649925    1.27179200365165
H         6.45287093854914    8.58078117050310    1.89604194723889
H         5.27112951901335    8.46541520973889    0.58761553254290
C         4.03114022144160    9.35399611372943    2.92500055070336
H         3.77802535017139    9.94370316058000    2.04674108288135
H         4.82557413826555    9.86377275755353    3.46617542046855
H         3.15066819713781    9.29080310266102    3.57771348518234
C         4.96738406744436    5.17697153773296    6.87332272049040
C         4.00553529228336    4.84626747348414    7.83721123408662
C         4.35840288671778    4.97918328020884    9.17292685707155
H         3.65052690027037    4.72954634486139    9.94550714259891
C         5.61429818256442    5.42768943349098    9.53719937221607
H         5.86525858175104    5.52667705769577   10.58305996551357
C         6.54512612872575    5.74887797343562    8.57181575376747
H         7.52011256608167    6.10087067239005    8.86955517351195
C         6.24231788599140    5.63089404906375    7.22146456616725
C         2.64798894256937    4.31425046319312    7.42418142443655
H         2.25118576699649    4.95691380298893    6.61911513991277
C         2.78103523911335    2.88498709025261    6.88362586469763
H         3.44526573524931    2.83218160343026    6.02508126271273
H         1.80444651244762    2.51737550391828    6.57750170050786
H         3.17299058323578    2.22871626363857    7.65937821051092
C         1.61985065736399    4.31640914302929    8.55426277572189
H         0.63944137800927    4.08928595256714    8.14226841804070
H         1.57220103840180    5.28922417505919    9.03650188381909
H         1.85616177226826    3.55920157178590    9.29980050498639
C         7.29001926308162    5.99295407625285    6.19372954805120
H         6.85490113967741    5.93477320950487    5.19198494631278
C         7.77432927008212    7.43092813336700    6.38891015585492
H         6.92125051693546    8.10451794192126    6.39025560718330
H         8.44319458531522    7.70838836148252    5.57682564572155
H         8.31049238951062    7.54445835663369    7.32696517373679
C         8.46448310640494    5.01218965382304    6.26446026269970
H         8.95848363312091    5.07495469917412    7.23075627003335
H         9.19285905677304    5.24627660124350    5.49116239848787
H         8.12967915939170    3.98618992393166    6.12264433193484
C         0.13515231050440    9.21657601977503    3.34090325079118
H         0.81556778491678    8.38215027748833    3.10583898042042
C        -1.28244100781886    8.68454547703669    3.48211909728983
H        -1.30679918946889    7.91444181891239    4.24785932596618
H        -1.61124151788783    8.25353540136851    2.54029321743193
H        -1.95297305158727    9.49016112437492    3.77064260638220
C         0.23709540936180   10.27675864860666    2.25096005620930
H        -0.44764353970270   11.09343090750704    2.46647229472642
H        -0.01836019429197    9.83991239543288    1.28976328949837
H         1.24786817621641   10.67439566315953    2.20461262116098
C         0.22020936665395    7.62404377292082    7.67276028429139
H         1.07885181030412    6.97687629932254    7.38926548515474
C        -1.05263841408406    6.79106894355753    7.74018186177952
H        -1.90556040378095    7.44597781889323    7.89987735382246
H        -0.99314534653145    6.07406562224705    8.55386946350536
H        -1.18882799952962    6.25901402618465    6.80180477725821
C         0.54025046541831    8.31507265472952    8.99147603195273
H         1.45275123886254    8.89741425228423    8.88556785212737
H         0.67446266463216    7.57939777094165    9.78086019631100
H        -0.27209273789129    8.98554788637491    9.26110046997431
C         2.77374160897562   11.21076375446909    6.26756274837117
H         3.43689456391266   10.71975127436468    5.54623660703607
C         2.16744869552956   12.45906434845488    5.64025223921906
H         1.56510228482709   12.18253466138607    4.77941732769991
H         2.95593655483090   13.13854405641585    5.32713726981913
H         1.52840968354685   12.95971468325467    6.36325457872026
C         3.56188143016045   11.52640952211013    7.53214874761986
H         2.89394459096340   11.91700706957150    8.29586333625612
H         4.33264507635229   12.26079633330095    7.31604311441433
H         4.03378027992603   10.61917603493893    7.90048444802363

