71
CSD_code = QADKOX | q = 1 | S = 0 | Stoichiometry = C34H28F5OP2Pt(1+) | MND = 4
Pt        1.30379196847013    4.98070768771086   -0.07034225942764
O         0.16124778722833    3.17987273654172    1.82995967702024
P         3.46472230779648    5.50684267499076    0.41005780623563
P        -0.47062621486545    4.50068192954887    1.96111545051605
F         1.55192912328069    6.19291546265510   -3.02348077416510
F         2.55570942676903    5.05849655135693   -5.29504542700706
F         3.57145560130134    2.52772057110537   -5.21498031100931
F         3.54889781944830    1.12586477509113   -2.87428486617031
F         2.51287502157815    2.29099366950942   -0.61406805669145
C         4.74554051063097    4.57096915988475   -0.45816016722399
C         5.20809158474224    5.03335625964557   -1.68966935365316
H         4.86093470328760    5.98405539648081   -2.06997561284032
C         6.11372615724924    4.27766000128836   -2.41054659214893
H         6.47833813908762    4.63884689486621   -3.35973545601476
C         6.54924690614424    3.05695400478808   -1.91667941543043
H         7.24811615599994    2.46500835863000   -2.48655475454277
C         6.08649485176736    2.59409268471819   -0.69489823054005
H         6.42267372258678    1.64201366266690   -0.31523207926736
C         5.18424931204165    3.34514442058062    0.03701750324243
H         4.80751001444900    2.97200233800055    0.97802308916981
C         3.73766012963871    7.24699662181593    0.00290783198136
C         4.96869545602439    7.84068056603950    0.27110894965675
H         5.76719499267792    7.25181398048458    0.70053457217439
C         5.16069560931947    9.17645249528832   -0.02907669955714
H         6.11381501042221    9.64012210840885    0.17273494693166
C         4.13270006563331    9.91792544200975   -0.59316127804960
H         4.28999603949274   10.95887358775457   -0.82883747347817
C         2.90761550890919    9.32731225290575   -0.86023694406970
H         2.11319982528692    9.90529879858035   -1.30601847107683
C         2.70658915108805    7.99182514934831   -0.56075535052407
H         1.75596287093169    7.51033066020630   -0.77949055913411
C         3.80090991123151    5.34485010632790    2.21856515846458
H         4.82018135465915    4.96178712759486    2.31330193551741
H         3.78312296770698    6.34740645419719    2.65734684829793
C         2.81282573283258    4.41738659763382    2.94361840007062
H         2.41250439493384    3.67322647446357    2.24763144492516
H         3.34620910766492    3.87571131930685    3.72602558420195
C         1.65924460235327    5.17343335346688    3.60594644386183
H         1.09486733787555    4.47111132698378    4.22684441453887
H         2.06877550330586    5.94297011648955    4.26657139375273
C         0.69478573958183    5.81105303688634    2.60759708740210
H         1.24991239528530    6.29357365237070    1.77505325188756
H         0.10890249997739    6.59354320433632    3.09559531585744
C        -0.90517833419901    5.15591878556621    0.29272283022262
C        -1.24664176791601    6.48364882726824   -0.00076918681737
H        -1.31656166477543    7.21564716227514    0.79268888428221
C        -1.53250717329970    6.84948674480096   -1.30376839391652
H        -1.79861177724011    7.87165085192363   -1.52481067648387
C        -1.48980286527700    5.91026710854325   -2.32965010898360
H        -1.72999215099167    6.21002575822437   -3.33720658183411
C        -1.15063896358570    4.59746601995036   -2.06011682435263
H        -1.14719529492331    3.86155732573309   -2.85059584897677
C        -0.82850662888289    4.21232615976451   -0.75471690182016
H        -0.68786109688718    3.16162597025237   -0.50867373571841
C        -1.93861907820945    4.50926198092277    3.01076515080874
C        -2.30777671050768    3.28826096323900    3.56125753067203
H        -1.70861526371132    2.41576357950261    3.34375906798391
C        -3.42397914071151    3.21033267648623    4.37414114668650
H        -3.71214793476407    2.26425791081582    4.80557967507535
C        -4.16996554016888    4.34960246090773    4.63030274657823
H        -5.04245987261591    4.29109301733690    5.26248049143756
C        -3.80270038223695    5.56734022281437    4.07672279561475
H        -4.38858619280425    6.45110161932165    4.27844586486748
C        -2.68706797926100    5.65256758150717    3.26538747313427
H        -2.40557854253606    6.60277630182770    2.83447043861003
C         2.00862705810322    4.24386380331918   -1.79463051053565
C         2.02796136848160    4.93483755196822   -2.99527629219872
C         2.53973181124274    4.36629751633460   -4.15819608935865
C         3.05373931483979    3.07194823992550   -4.11833655857309
C         3.04047574960073    2.35448894509834   -2.92288469870769
C         2.51296794718854    2.95020124140637   -1.78371866152910

