52
CSD_code = QADPUI | q = 0 | S = 0 | Stoichiometry = C22H22ClN3O3Os | MND = 9
Os        3.42515246628024    0.91959568598559    3.61491462045111
Cl        5.60667713275726    1.53080202285256    3.71390936551480
N         3.38823834116092    0.70845583393706    5.53668519663045
C         3.78513310036862   -0.38777001051592    6.19898567382551
H         4.09754555635648   -1.22953756462103    5.59368299793519
C         3.82291544335216   -0.45530928381193    7.57554399216450
H         4.15656156402314   -1.36168783845721    8.05505872282761
C         3.43865856038020    0.65093087137931    8.32717768298239
H         3.46397204408780    0.62247872717335    9.40431601830846
C         3.03617628889833    1.78937691456415    7.65176876528859
H         2.73320544397886    2.69229252856158    8.15825787122129
C         3.02686984131034    1.79087449080804    6.26664080528749
O         2.17877844641139    4.00311037916327    6.01751375738140
C         2.60739823505930    2.99352032594526    5.48130203177189
N         2.78412952102807    2.76947684770169    4.15335177968131
C         2.46885651592503    3.69566594300461    3.18757081244249
C         3.17553013545555    3.64502448525689    1.97180798684018
H         4.00783172109826    2.95687391534986    1.88228057781131
C         2.85364273723156    4.48217734690743    0.93305280223155
H         3.39491762603297    4.45638521362481   -0.00054297970664
C         1.81117009275608    5.39636083895547    1.08573320499041
C         1.12470635426098    5.48643332124204    2.29543986721262
H         0.33243318171418    6.21304673226525    2.39235201039522
C         1.44837687832334    4.64976753453599    3.33720799749154
H         0.92744818316337    4.72026819613111    4.27690383144786
N         1.44930106508098    6.24240296566463   -0.00399741945679
O         0.57847201838225    7.07258855122849    0.17992698212854
O         2.02295514270935    6.07848081938289   -1.06641806905485
C         2.06942363992534   -0.80484274794401    3.17229725478120
H         1.51219484555236   -1.28383178857972    3.97067037776243
C         3.20924951945292   -1.47152968491368    2.65411340479934
H         3.55409200040434   -2.38076409968374    3.12985010088138
C         3.87650187270957   -0.97759698706952    1.54222862440632
C         3.31487641557665    0.12846827860933    0.85903804443053
H         3.79359538936733    0.48174167568006   -0.04318372354864
C         2.12848825235717    0.70186284401558    1.27952638422278
H         1.66908769125416    1.47888142748939    0.68264273699217
C         1.48661644119158    0.28420400288412    2.46819325859868
C         0.10514858878519    0.81450358900442    2.78379171417855
H         0.05059134942977    1.84546899960041    2.41525909623642
C        -0.92729529071581   -0.02550938609083    2.02170063632733
H        -0.73157086144479   -0.00038050346172    0.95217432109364
H        -1.92712693009050    0.36190952724311    2.19888114108834
H        -0.89393489454925   -1.06136587474586    2.35343556269259
C        -0.21662370093004    0.82837235760097    4.27752197668463
H         0.56356801887726    1.34288620978046    4.83649844686544
H        -0.32503844655091   -0.18000280749937    4.67019652962224
H        -1.15432685444619    1.35265044490860    4.44257574763301
C         5.12920963474696   -1.61151744766563    1.02788205021111
H         5.29273706984705   -2.58522258392658    1.48322308987730
H         5.98333024538067   -0.97532193787268    1.26369360724179
H         5.08725236628094   -1.72554930157874   -0.05383726912412

