31
CSD_code = QADPOA | q = 1 | S = 0 | Stoichiometry = C6H16CoN4O4(1+) | MND = 6
Co        3.94818058697610    9.14861204011577    4.93804562950063
O         2.48539703226938    7.27927073046003    3.97003656869037
O         2.35574752105037    9.99380446829097    5.38477512330205
O         0.25647395744830    6.83056070619760    4.24390869289147
O         0.53077966749226   11.25074672098025    5.99990600715272
N         3.99299435375798    9.82440847419794    2.96640783183168
N         5.55538658859049    8.23864614833149    4.45324567021825
N         4.07098334898294    7.99107740191017    6.67223030728545
N         5.13429949675117   11.09906206927363    5.89737049051993
C         5.28388201503121    9.42871705045586    2.38594867076594
C         5.65972927461244    8.08527374570520    3.00145845052232
C         5.70341588321877    6.99146851451663    5.20432879316320
C         5.37244462225554    7.30716633719705    6.65916605637877
C         1.36721940638795    7.04937115437457    4.10128793701650
C         1.44465783579833   10.62734283239700    5.69437806882359
H         3.81739509492966   10.81129911588406    2.79741649086090
H         3.25142472865586    9.30759693037642    2.49722293255077
H         5.24737239366728    9.35850896391210    1.29316122084872
H         6.03120936579532   10.17778368242249    2.65819136552892
H         6.66306432657642    7.77147894165216    2.69080942896618
H         4.94120401000553    7.32541622749991    2.68682693673252
H         6.29961670582466    8.87171126401635    4.75230908271244
H         4.98297857517982    6.27016619707080    4.81225177156833
H         6.71046663443950    6.56893043230203    5.10873918496621
H         5.37111925811894    6.39392259969052    7.26427676165165
H         6.12489716422306    7.98749468951552    7.06459381043925
H         3.33179304349578    7.29430724491852    6.60106613978320
H         3.93538430340426    8.47242294819887    7.55730024469441
H         5.80114757220575   10.86702363166072    6.62450830396156
H         5.62897009144450   11.64415206235957    5.20069158789078
H         4.44886514141166   11.71655667411437    6.31734043878188

