81
CSD_code = QADROF | q = 1 | S = 0 | Stoichiometry = C36H36AgN4S2Se2(1+) | MND = 5
Ag        8.19168938040997    3.17805339429487   12.17110411206103
C         7.00587871496565    1.76411072268891    9.01820110321271
C         7.74322799416124    1.52008652309670    7.86840720313430
H         8.29322137755262    2.32267881243746    7.39676474453489
C         7.77787984712587    0.24971219489971    7.32632625507506
H         8.35513378502384    0.06723614841220    6.43239215019309
C         7.07201995788513   -0.78952487592044    7.92136276843967
H         7.11227827334138   -1.78047079132218    7.49654736611223
C         6.30630249876126   -0.54504142665786    9.04176773015846
H         5.73111206699543   -1.33846534629477    9.49574757431240
C         6.24578310717686    0.73633319521179    9.59360438848435
C         5.40203495112814    1.02442976829960   10.72261104848444
H         4.92017386303858    0.18532285060408   11.22815090606103
C         4.32737391825091    2.56747931562528   12.14357058783485
H         4.41094014100286    1.85908884949576   12.97789172908848
H         3.30145181582267    2.51601432854834   11.75717366350666
C         4.57435764074059    3.98897040014508   12.62151169728007
H         3.72222340342333    4.35648149188542   13.19270261398804
H         4.75568051233847    4.62641341121951   11.75611363874776
C         6.41478695048248    5.87034397235176   13.54518637014329
H         5.47162386641677    6.41029296443823   13.62056916108022
H         7.04304622067573    6.11864164655040   14.40002302255198
C         7.12977889081641    6.21267209647134   12.24495106447730
H         6.56232330811744    5.80789506310507   11.39176353164840
H         7.16083056609641    7.30619364212180   12.13215954629871
C         9.37038005260409    6.27996099379567   11.61125675533323
H         9.13849403200716    7.20849802468702   11.07355619863885
C        10.75885988011583    5.88076420300969   11.54768934475395
C        11.59244590337057    6.60706540255399   10.68840085542130
H        11.17339551528677    7.43814479024438   10.13924530687046
C        12.92263512847301    6.28028580819994   10.52355035755190
H        13.54147550795003    6.85803026942592    9.85458246739983
C        13.45903752296988    5.20770206325787   11.22011125246682
H        14.49677093192242    4.93885997415173   11.09404511417892
C        12.65886169401294    4.50000262946415   12.09841740215672
H        13.06993176475769    3.67655125487288   12.67248863413004
C        11.32358180407056    4.83248932698732   12.29191035002348
C         9.77172887664189    4.88841280484210   14.83321442246692
C        10.08785942426385    6.23960760511668   14.78313983603183
H        10.73317232966014    6.61644251351386   14.00319831642423
C         9.58715000577300    7.10585943096226   15.73593598026746
H         9.83824288578934    8.15471308311708   15.68583149607069
C         8.77296559515083    6.63607666156076   16.76061347704126
H         8.38077650807339    7.32140810425770   17.49558109251155
C         8.49368111836774    5.28910128371380   16.84721146115755
H         7.89006533612285    4.90637462310157   17.65688571500942
C         8.99700327585560    4.39633906705417   15.89707837990402
C         8.79254716518971    2.98088969635851   16.03218977635778
H         8.25040453138767    2.62546667256908   16.91175053280713
C         9.20994355807075    0.76727776300656   15.35136386989882
H        10.17217731625853    0.34337018538663   15.05126721957612
H         9.03177782905203    0.51185198884150   16.40589427267663
C         8.08605587503608    0.11672440820944   14.54756235171430
H         7.11494016004228    0.45752979819381   14.90652828147129
H         8.15125497780645   -0.96636402553514   14.65354356985318
C         9.78483992839928    0.29238417698502   12.27263145187807
H        10.38367792206362    0.99380735859966   12.86026122578834
H        10.08201846866380   -0.73478497538453   12.48510410563460
C         9.94541849963265    0.58047231016446   10.78726259824254
H         9.31072344738815   -0.11661051383151   10.22445743364680
H        10.99457585095937    0.40165758260743   10.50156015277823
C        10.22400112079105    2.57095089877077    9.60647914909032
H        11.20553946348535    2.19646928329435    9.28433822272998
C         9.82655886674931    3.82886123548077    9.00542808696320
C        10.82065853046919    4.57498884564405    8.36401981718778
H        11.83199475368703    4.19380469244118    8.35484776546615
C        10.54055763363627    5.78443864189891    7.76058285271342
H        11.32734525850399    6.33781189020865    7.27172012259345
C         9.24546251128227    6.27932234751847    7.77980099540325
H         9.01475879259341    7.22297844816695    7.30879936419284
C         8.24374730897588    5.54174872899836    8.38459482564325
H         7.22028753218841    5.90060361630577    8.38072871982134
C         8.50812612506423    4.31503295605604    8.98172776869862
N         5.22352185426074    2.23474994486196   11.07126711182385
N         8.45457838710518    5.64746557293290   12.22925609545714
N         9.29689563877258    2.18920285445958   15.17217132340459
N         9.51235351693136    1.90251487977184   10.42030654358815
S         6.03223390493295    4.09885777904641   13.72971424481809
S         8.03493167287242    0.48178107841546   12.75647505970666
Se        6.95949722577535    3.47592997768910    9.80666877929011
Se       10.42292622696078    3.66207563224075   13.55494811637200

