69
CSD_code = QADTIB | q = 0 | S = 0 | Stoichiometry = C36H22N10Zn | MND = 5
Zn       12.83340828020384    0.02781146306654    2.45146532133074
N        14.64389838986021    0.32993544550385    1.70870171262212
N        14.77879899643684    2.70958308801131    1.95393835960769
N        12.55153664696182    1.98776209357037    2.46199189837115
N        10.23244430240920    2.05634988273557    3.05977227625837
N        10.87320065118872   -0.21524849732429    2.64527888677295
N        10.74206454493215   -2.59713258520652    2.41623968194446
N        12.96537112471038   -1.87284205840923    1.89135483970935
N        15.27350424852281   -1.93618826028042    1.25104286464501
C        15.50921689434395   -0.64627510600342    1.34237150779894
C        16.80393556877060   -0.05527408290719    1.04531148855054
C        18.01305028762901   -0.58834124210088    0.63219336496030
H        18.11720782661432   -1.64973947085807    0.47086346054856
C        19.06890862162563    0.28583103235358    0.43538413561202
H        20.02616079527071   -0.09797021750831    0.11308904966330
C        18.92306813182999    1.65547311642699    0.64283684142127
H        19.76998098206394    2.30554902410022    0.47662661050480
C        17.71662102888254    2.19623588125537    1.05478447779363
H        17.59464282449205    3.25595237393998    1.21484525121544
C        16.65710197012231    1.32800622254413    1.25583641827515
C        15.27840114806664    1.52603042558584    1.67226449866943
C        13.52740504149852    2.91362058713533    2.30314065244483
C        12.98720663235181    4.23533266664454    2.57685615711790
C        13.54109621346235    5.50409525809852    2.55944773341605
H        14.57968646625360    5.64528017334520    2.30466538565462
C        12.71706826791294    6.57096741742794    2.87643691559227
H        13.11800036816319    7.57432373248001    2.87198596776557
C        11.37610994463929    6.37835604597712    3.20033404410739
H        10.76486872411052    7.23636650887943    3.44056750208810
C        10.81466855445768    5.11255454706490    3.21789858113662
H         9.77656890279185    4.95534175542237    3.46500296934991
C        11.63272348493439    4.04070342729985    2.90380737878485
C        11.40093260118803    2.60791317177499    2.81859584859282
C         9.99740238620018    0.76563504904450    2.97058446903925
C         8.69223422520152    0.17990803578834    3.22801640093970
C         7.46781475965174    0.72036252683426    3.58298153653014
H         7.35832865514233    1.78462432699673    3.71977761200522
C         6.40345762957507   -0.14938953949506    3.74983298889089
H         5.43413700720821    0.24026196826835    4.02563310034717
C         6.55457186481571   -1.52207291131253    3.56609895633854
H         5.69952866450791   -2.16823867766720    3.70358617057303
C         7.77488799855814   -2.06987191209223    3.20865833132934
H         7.89868327747193   -3.13115376250862    3.05987044766792
C         8.84459718796950   -1.20646676792697    3.04159806949929
C        10.23536904060254   -1.41012912750463    2.67219453613289
C        11.98783202034335   -2.79828993322791    2.04315460257917
C        12.51677674632353   -4.11482798884877    1.72858080138979
C        11.95557983890231   -5.38080447452272    1.71776269371221
H        10.92000904477615   -5.52351177292276    1.98425177654570
C        12.76626246267520   -6.44179368759218    1.35166874728971
H        12.35892912175373   -7.44240727387425    1.33205451285670
C        14.10085224403917   -6.24604228903426    1.00313217911479
H        14.70058540615011   -7.09917630619786    0.72035372453882
C        14.66856723617139   -4.98318264659418    1.00984749392626
H        15.69993392999925   -4.82295987341684    0.73789028854494
C        13.86496757752237   -3.91700542293899    1.37717822337910
C        14.10561455441381   -2.48847863279653    1.49658022933159
N        13.34398760597141   -0.26303551266447    4.46829063643404
C        12.89802296353818   -1.24144559927381    5.22039028546440
H        12.20870295738791   -1.99669135664377    4.89717765248344
N        13.41324214839428   -1.18420689062523    6.45826545249338
C        14.23928202491721   -0.09757155610904    6.49117552411864
H        14.78189391134073    0.17836084606540    7.37150600829605
C        14.18572342996686    0.46295100732381    5.24996478113732
H        14.68974384529811    1.32883611528673    4.87033223008662
C        13.15417280168738   -2.08339026876320    7.54697745604947
H        14.08318857564818   -2.54584807763390    7.88523597187592
H        12.46930698401816   -2.86158755959131    7.21588188846454
H        12.70535140516516   -1.54582387386773    8.38438213826507

