79
CSD_code = QAFCAE | q = 0 | S = 0 | Stoichiometry = C29H41Cl3N3P2V | MND = 6
V        -1.22431336294562    3.49471269282061    6.19673289890543
P        -2.65769835065207    3.95350916608297    7.88447460663790
Cl        0.19550879430747    3.12552683062334    7.68612915113794
P         0.19384667838809    3.59406963285120    4.39938229812330
Cl       -2.67904304215620    4.26827223214944    4.83684551595549
Cl       -1.82625988226334    1.29516453077323    5.97710693491326
C         0.12619317207856    6.04067505482679    5.53669087745549
C         1.34343332072259    5.89254505054129    3.45825429038657
C        -2.44780078568518    6.15135406431771    9.50325086927998
C         0.67007768326150    6.47516212741975    2.39041990978803
H        -0.40978709635464    6.47841863274219    2.38791271991899
C         0.01948962891307    8.09954060377746    6.74452466569351
H         0.30745453110518    9.13151292650120    6.87655466279537
C        -1.20800628390711    6.16970544104293    7.43425384542904
C        -0.84962160914017    7.50681043314519    7.63868008108231
H        -1.26124860029353    8.05779047595047    8.46796326634198
C         0.51464133566971    7.37805045036784    5.67638434264294
H         1.18923628929368    7.82526789514578    4.96545105398189
C        -1.53551523149704    6.09624777882608   10.55260030388160
H        -0.57461756540786    5.63008299280874   10.38811572696947
C         3.43951201780536    6.49888775809696    2.45350697291350
H         4.51885076123337    6.51524531350278    2.48438112527958
C         2.73287083828433    5.92007366168883    3.49355521992271
H         3.25180030012090    5.50279973386027    4.34318905130700
C        -3.09854580985380    7.23425993874374   11.97249669112781
H        -3.35598951688495    7.64829136104373   12.93555180738438
C         2.76702824570010    7.05830871464766    1.38006425868772
H         3.32125684081010    7.50601079230368    0.56909443762109
C        -3.99846229200637    7.31023235668122   10.92270303671480
H        -4.95516812110799    7.79057501808900   11.06399609503321
C        -3.67592680428573    6.77502812903683    9.68721103897887
H        -4.36441782853410    6.84553600009099    8.85876798643605
C         1.38205429800920    7.05271248361417    1.35454120302954
H         0.85366121589205    7.50033473947537    0.52626381304050
C        -1.86402163325231    6.63408834985306   11.78319079497653
H        -1.15675861176457    6.58199807981288   12.59732141605468
N        -0.70791538413358    5.47069020616911    6.41085419325680
N         0.60163853286777    5.27054182516690    4.50320104624538
N        -2.11692592900126    5.55120759245985    8.25866069341164
C        -4.46049038382663    4.16260741040082    7.62159467594119
H        -4.96256610938879    4.50112537225181    8.53271687197617
H        -4.58460330928277    4.91755895498970    6.83760606631048
C         1.85221975146741    2.81667860598482    4.18991256673730
H         1.67277680622791    1.79155170699181    3.85288735198593
H         2.38835407986959    3.35303121262778    3.39713475027038
C        -2.52489881921889    3.04525769644616    9.48207811244741
H        -2.45768492084162    1.99194744112230    9.18209776660086
H        -1.55093435991442    3.31681909448649    9.90337706588539
C         2.66138138628245    2.80365597058793    5.48280449898615
H         2.63858015968824    3.79820465057430    5.94216416028082
H         2.19594493526286    2.11009639538581    6.18637190043798
C        -0.43567783015524    3.42382268977601    2.68102660236110
H        -1.21385456790637    4.17765117704136    2.53186916615540
H         0.37430560400241    3.59583832749676    1.96213412227167
C        -3.62377805336078    3.21770259518828   10.52934123902762
H        -3.79283625153523    4.27544189836260   10.73966124919829
H        -4.55835435267787    2.78985208518806   10.16281125723949
C        -5.01527396027032    2.82101970462053    7.14147250117704
H        -4.43720025767412    2.49091043972005    6.27252720901897
H        -4.88520077078186    2.06784735197068    7.92276300309036
C        -1.04493805828309    2.03247775194325    2.50695730024366
H        -0.27551363924801    1.26859912293919    2.64360611387918
H        -1.80162844504405    1.87840383833477    3.28231495753782
C        -6.48811462615804    2.92575962199939    6.76870483170062
H        -7.08048881896716    3.25604677355516    7.62097918420049
H        -6.86560593815884    1.96064205766781    6.44086617488478
H        -6.62333006328454    3.63891750315519    5.95850236892921
C        -3.23145451383379    2.51301949690780   11.82368897143776
H        -3.04755347438284    1.45660764463603   11.64223821735821
H        -4.02460069563769    2.60344642684048   12.56235492382437
H        -2.32660292738473    2.95307527291883   12.23729437519240
C        -1.68039524365321    1.87344109917787    1.13201092636784
H        -2.47894669757062    2.59976446283581    0.99739383216221
H        -2.10221295286276    0.87758720030580    1.02363710197354
H        -0.94205273725534    2.02306172289397    0.34544722453451
C         4.10518111038360    2.38418503588839    5.23478839278808
H         4.14202303003058    1.38291958360353    4.81098487497027
H         4.66644809870064    2.38230217815021    6.16616162028990
H         4.59336707331297    3.06678135797425    4.54043756757725

