58
CSD_code = QAFFAE | q = 1 | S = 0 | Stoichiometry = C24H30AgS3(1+) | MND = 15
Ag        1.03782713703816    4.49150002045560    7.50330689723194
S         3.11947679298146    4.49149998119225    9.30366335304207
C         2.76717403576525    5.87261639831168   10.45952245865566
H         1.76681572805384    5.71011610033063   10.86131706418899
H         3.50338109751961    5.80388769620576   11.26050635380140
C         2.86513106413403    7.22093558402936    9.75391207194396
H         2.61798317193988    8.00092614001087   10.47781231344550
H         3.88972767443476    7.37854784953708    9.41482251250564
C         1.92178192559697    7.27800228010857    8.58561718973820
C         2.40501016767072    7.27611788493600    7.28305187374486
H         3.47198779327113    7.31016282666901    7.11249062860489
C         1.53281133677029    7.27798945778424    6.19649067173476
C         0.16315274909761    7.27627904214229    6.42930583549317
H        -0.51804613447884    7.31041328654653    5.59056996920423
C        -0.34174635743808    7.27807635489322    7.72792390360842
C         0.54470043422930    7.27624789759530    8.79768701668803
H         0.15893766519387    7.31033437231924    9.80699594096437
C        -1.82518871518607    7.22092032218330    7.96072263142857
H        -2.32861050189127    8.00109539665597    7.38506306213943
H        -2.04381958925716    7.37810235907986    9.01767006136065
C        -2.38718064469328    5.87269233735948    7.52262054401802
H        -2.23476547006068    5.71046220182569    6.45537438644656
H        -3.44899466994583    5.80380533759794    7.75950764973429
S        -1.56231927775264    4.49149997321849    8.40555412193263
S         1.55600612321066    4.49150002309252    4.80031782062245
C         2.73310871390713    5.87263579815199    4.52746040974772
H         3.58126502029327    5.71019123134741    5.19288712409095
H         3.05867447543408    5.80391716688844    3.48939979349448
C         2.07290241016835    7.22089327267784    4.79537685269213
H         2.82326630580596    8.00099897518624    4.64736713841263
H         1.26689515197128    7.37830378518920    4.07760303003575
C         1.92178191073702    1.70499766005651    8.58561723233918
C         2.86513102993321    1.76206437431185    9.75391213410931
C         2.76717402415441    3.11038359602538   10.45952247342580
H         1.76681571547417    3.27288391986978   10.86131707155232
H         3.50338108039690    3.17911228974280   11.26050637089363
H         2.61798310477854    0.98207384623337   10.47781239820889
H         3.88972764529415    1.60445207628039    9.41482260555919
C         2.40501016714297    1.70688207616784    7.28305192722637
C         1.53281135018616    1.70501061564992    6.19649071382834
H         3.47198779409087    1.67283710975874    7.11249069251546
C         0.16315276124590    1.70672113140210    6.42930586601677
C        -0.34174636187423    1.70492369360903    7.72792393218184
H        -0.51804611799049    1.67258700873578    5.59056998936886
C         0.54470042368401    1.70675204451992    8.79768704968071
C         2.73310868375683    3.11036425479644    4.52746038493807
H         3.58126504956621    3.27280883936508    5.19288702018084
H         3.05867437621397    3.17908286529369    3.48939973928819
C         2.07290243362923    1.76210677403741    4.79537689007759
H         2.82326636001113    0.98200109337920    4.64736721405440
H         1.26689517942107    1.60469618473104    4.07760307420126
H         0.15893765499065    1.67266548977337    9.80699597078029
C        -1.82518872788564    1.76207963966211    7.96072264304761
H        -2.32861047228401    0.98190454719587    7.38506305798669
H        -2.04381959710262    1.60489756548165    9.01767006767902
C        -2.38718071769362    3.11030759661407    7.52262058763972
H        -2.23476564438093    3.27253775288104    6.45537442048666
H        -3.44899471927978    3.17919460090365    7.75950779198066

