93
CSD_code = QAFFOU | q = 0 | S = 0 | Stoichiometry = C40H48N4Zr | MND = 6
Zr       -1.24613596381372    0.47418812802093   20.73606345595893
N        -1.28617109729831    2.72176341777477   21.07446961058546
N         0.88286882807304    0.89404140488639   20.73877092507964
N        -1.35896129321212    0.89545073353610   18.50557682778416
N        -3.39788707497720    0.44432247304737   20.45468070945534
C        -0.99343350165348    4.87883661592933   19.91063802801581
H        -2.00175058156844    4.88383273230415   19.49685386975311
H        -0.31968416257659    5.31789773484047   19.18040098551675
H        -0.98903910867133    5.50199584389060   20.80408169054963
C        -0.57814195107039    3.46347205898312   20.25505281828042
C         0.63488635764692    3.02672338236522   19.69278215698766
H         1.12113991452278    3.72919288464760   19.02924626573613
C         1.36848654232153    1.87719412865503   20.00350936832385
C         2.79167763052963    1.82776977496516   19.48282305010422
H         2.95481233204641    0.92115558375631   18.89908866572782
H         3.49778933328169    1.82489505985678   20.31231441550490
H         3.00539092047833    2.68630914093774   18.85270023625152
C        -1.88030211015923    2.67378907835858   16.87514471731726
H        -1.88516538331152    2.03577080089361   15.99222722629784
H        -0.89882598572585    3.14153375874125   16.95179550479880
H        -2.62387697188153    3.45420564456845   16.74105004270283
C        -2.16610826846576    1.85473800290395   18.11683903413743
C        -3.37130941743732    2.14734841272688   18.78029332559421
H        -3.94581462824805    2.96453199067721   18.36513543870796
C        -3.99667089226292    1.42157348306346   19.79934495964622
C        -5.43828599231127    1.78616969136744   20.09576864712889
H        -5.56299099386919    2.02765067535351   21.15191411213518
H        -6.09545425469274    0.94924533345678   19.86265734741948
H        -5.75171405125579    2.64348170161052   19.50705692061912
C        -1.00720401134201   -1.75356119649058   20.32662951612425
H        -1.93989336285338   -2.19953291774999   19.94767953782386
H        -0.74225598368802   -2.34471955564464   21.21809861789555
H        -0.23216807485273   -1.98191988869136   19.57624133095156
C        -1.33687299050439    0.11106679233563   22.98290043705537
H        -2.13569597221838    0.67929015639084   23.48791819309206
H        -0.39722539546783    0.39744574945086   23.48029268842769
H        -1.50230499625370   -0.94338830205642   23.25709863918959
C        -2.40183457891131    3.33422640090051   21.78440608216493
H        -2.97723637255348    2.51687700253196   22.24552676286447
H        -3.07448283880347    3.88543520015969   21.10996558733352
C        -1.92710823824173    4.25404016914768   22.88659112365816
C        -0.91289959214281    3.82599636467983   23.73530597605594
H        -0.49883309047572    2.83851840183548   23.58700024995179
C        -0.45042646108359    4.64781100146371   24.74596487053604
H         0.33801662686150    4.30508582750270   25.40022527728587
C        -1.00029581834422    5.90705200528506   24.92522067144191
H        -0.63989682431213    6.55044249328447   25.71445235990202
C        -2.47622333686466    5.51547966250866   23.07443380599857
H        -3.26931898165739    5.85896184050193   22.42389835481886
C        -2.01638061775861    6.33716096653536   24.08991435217503
H        -2.45084622341540    7.31707840430559   24.22619699005761
C         1.79789369741258   -0.12120497118878   21.23557205132613
H         2.39031501756472   -0.58222524568616   20.42721970172088
H         1.18342217179220   -0.91245882866333   21.69298496854826
C         2.74230613707196    0.40099917577208   22.29856653179301
C         2.44068228274516    1.55648372796592   23.00873179776055
H         1.53616334862124    2.09839797672518   22.76782020171846
C         3.29290172198760    2.01494719552959   23.99737747581993
H         3.04827718239561    2.91678383926409   24.53962587347828
C         4.45590386901153    1.32346555433056   24.29126088455210
H         5.12138983728663    1.68110797463373   25.06313282663229
C         4.76327307522869    0.17064318046905   23.58836427328865
H         5.67023901213306   -0.37268315643310   23.81087574906177
C         3.91238333282277   -0.28664978934747   22.59798159776156
H         4.15744109881249   -1.18664305581257   22.05114562172337
C        -0.25785701129711    0.51184944308937   17.63154483451188
H         0.40325175437809   -0.14595431929957   18.21634867474349
H         0.33306793177155    1.37838398849897   17.29824210957960
C        -0.74378071207219   -0.26165633862623   16.42664495396266
C        -0.27803673079169    0.00852644247323   15.14676078794803
H         0.45659089108023    0.78797798160465   14.99532144076082
C        -0.74715195513911   -0.71359528544261   14.06221401857424
H        -0.37814776799052   -0.49415000046886   13.07062496970904
C        -1.68938659548601   -1.71034639507671   14.24633319536569
H        -2.05752614943273   -2.26996614141791   13.39897621885789
C        -2.15535160922039   -1.98810793364485   15.52141923502596
H        -2.88559667835843   -2.77014378191528   15.67076797239628
C        -1.68334960109559   -1.27048045983232   16.60441494133935
H        -2.03203726579702   -1.47940344028240   17.60614205534563
C        -4.20304692246334   -0.42447833810336   21.29811622639074
H        -4.80067547330058    0.14216100891293   22.03215826609735
H        -3.50514380668871   -1.06575094251041   21.85893522159039
C        -5.12700987069079   -1.32988585351265   20.50987566388347
C        -4.88839093426675   -1.59243889717946   19.16656475357581
H        -4.05014610288450   -1.11289576466738   18.67965262189110
C        -5.72032160130181   -2.44187979650573   18.45923715161153
H        -5.52598380412512   -2.63453132876353   17.41411396907316
C        -6.79927011095518   -3.04250270299658   19.08549113234145
H        -7.44874685780343   -3.70583134571818   18.53348467528110
C        -7.04313655804245   -2.78678746560129   20.42439334040098
H        -7.88430529926608   -3.25047769721349   20.91904512130811
C        -6.21293121820634   -1.93524034217993   21.13115718979538
H        -6.40821276490144   -1.73778412186988   22.17611792229687

