81
CSD_code = QAFGIQ | q = 1 | S = 0 | Stoichiometry = C36H36AgN4S2Se2(1+) | MND = 5
C         0.64890450109309   10.37078477479140    6.80076777715707
C         0.34307737018853    9.17060154399817    7.46137774340633
C        -0.06619748575968    9.21238802918639    8.79675904672424
H        -0.29077779539343    8.28577356246140    9.30421765547561
C        -0.19900257846644   10.41846471518294    9.45164333745449
H        -0.52075382554649   10.44519839495701   10.48101238612682
C         0.06575322672462   11.60398103310641    8.77521489556226
H        -0.06029653750514   12.55085458151516    9.27823154537690
C         0.48311933024752   11.58187135372151    7.45841339596735
H         0.67743457608840   12.51017343489482    6.94020275112012
C         0.43776549739835    7.92397535163137    6.75070647641154
H         0.28450355301909    7.00057779419933    7.31208487536094
C         1.78171003409321   12.12973819088497    4.70254728172818
C         2.79236683780975   12.82011833187047    5.39214022494939
C         3.06731905873364   14.14082856523885    5.01669380470660
H         3.82199010518356   14.68914802543181    5.56262297121251
C         2.40894401152366   14.74622659201819    3.96601603582979
H         2.64220582631377   15.76533492015336    3.69854288008084
C         1.44846424439514   14.04016458248309    3.25677298676851
H         0.93067676414364   14.50244827504093    2.43009313349820
C         1.14197120125014   12.74496848847004    3.63274438813701
H         0.37310315648145   12.18927218739955    3.10678598178735
C         0.69260407099681    6.73131563978758    4.72839122171224
H        -0.34146184401307    6.39288590426819    4.58478079344677
H         1.24173620669502    5.93357238623717    5.24474265029709
C         1.29657770756145    6.99514472635812    3.35851307331767
H         0.92290725679075    7.94792064564426    2.98258976498254
H         1.05077921008966    6.19017043891550    2.66642299519789
C         3.45232862056105    8.03693716534975    1.91225080186541
H         4.49580061951285    7.83970091458328    1.66855455978267
H         2.81421361905076    7.62200233949151    1.13307444591751
C         3.21753057906854    9.53387768877055    2.06170351019360
H         3.28917697900407   10.00688345605636    1.07147991100055
H         2.19781344716640    9.71234491212754    2.43981697090725
C         4.36549020186248   10.67344557732409    7.98040927877650
H         4.48965965442935   11.51412231874192    8.67809597868969
H         5.36945116174781   10.38646228616460    7.62799531034352
C         3.73068199298367    9.50477817649653    8.72138779656263
H         2.68840315289555    9.72402987258348    8.95093536851838
H         4.26797639016093    9.29491382368552    9.64540552376255
C         5.42979686146555    7.41071922875904    7.98626523655161
H         6.07173369997116    8.29141094171684    7.95312676263577
H         5.48373698510228    6.93718207307009    8.96617062670235
C         5.85884911748761    6.44245208101431    6.89578945432562
H         6.77076467248074    5.93379261045356    7.23348745358844
H         5.08686774824348    5.68008713577264    6.73044905791974
C         6.76306232224078    8.70483592873865    3.48849881873344
C         6.68347987060091    7.30532283727499    3.41500969910785
C         6.99993019043529    6.66623779291003    2.21342327335205
H         6.92846075882636    5.58990563879314    2.15896910743029
C         7.41394306747629    7.39605272119503    1.11933518467972
H         7.66228244436165    6.89700915232679    0.19569517332855
C         7.52809988972274    8.77843874103353    1.21503094076048
H         7.87388442628897    9.35041549640098    0.36718213564182
C         7.20962327955089    9.42875516794682    2.39161648730376
H         7.31233098530640   10.50262931839523    2.45685475992997
C         6.29789150073691    6.55311857436112    4.57842248265098
H         6.15522752292434    5.47655714920488    4.46906486352183
C         6.31287644729972   11.42213183334115    4.58796226704023
C         5.50085084608347   12.01830491160810    3.60914729614976
C         5.63786284346190   13.39305535486950    3.38158982217696
H         5.03928598454400   13.85337801979205    2.60830871670394
C         6.50419439362702   14.16671228010697    4.12658158583679
H         6.58828471855433   15.22442790149977    3.92982896978930
C         7.26452765557322   13.57969750845320    5.12713511888821
H         7.94157479667652   14.17628434407568    5.71940213676896
C         7.16581665438121   12.21737781726935    5.34447028554607
H         7.77438234709528   11.73826033298752    6.10384681206731
C         4.52802507183344   11.31287206709882    2.80329771211482
H         4.09943996221523   11.90593642592206    1.98465210639639
N         0.66829846987121    7.94278543648131    5.49934513462032
N         3.56308828011822   11.05092423885747    6.84489151100105
N         6.16339211840548    7.15929456883562    5.68916283804590
N         4.16277214841275   10.10720371288309    2.98516683822027
S         3.69392771402295    7.95683227645564    7.76093792064958
S         3.12659409758454    7.08548830228839    3.43165157502442
Se        1.21439227353687   10.29441850213601    5.00500936021314
Se        6.31788111596131    9.54912784891077    5.11303185841362
Ag        3.65289751272839    9.16264723022452    5.23241447429635
C         3.57623482162027   12.26952891870668    6.47619004725543
H         4.21678428459250   12.99838657662186    6.98994256447560

