35
CSD_code = QAFHAH | q = 0 | S = 0 | Stoichiometry = C12H12N2O8Zn | MND = 6
Zn       -0.00001561060695   -0.00000004130613    0.00000262008633
O        -1.25329479968923    0.26546615628275    1.48644361400158
O        -1.98567480244572    1.85780202876740    2.85503599862879
O        -0.93531537813225    4.20055083983950    2.75913398826578
O        -1.34972892031269    0.98229806985030   -1.53612083000904
H        -0.81780552234508    0.98910830818599   -2.33896538386604
H        -2.18630555911296    0.55277719346895   -1.73624341033295
N         0.61394352407871    1.87337495735461    0.48134288415839
C         1.54213685596072    2.63811273505088   -0.07140427385202
H         2.16541464982678    2.16435254174156   -0.81409855319999
C         1.69369223986510    3.97152149955847    0.28825749568100
H         2.45751485974534    4.57125348601426   -0.18120829107641
C         0.86256384726260    4.51882030464568    1.24420410450106
H         0.94585211910550    5.54960229470823    1.55147143304208
C        -0.12156173787326    3.71265886337317    1.83232015045964
C        -0.20301576138324    2.37890394490925    1.39904976971092
C        -1.24410454155701    1.43231285524600    1.96448375043931
H        -1.54581829225824    3.45062746660196    3.03010789535923
O         1.25318961891531   -0.26545455019892   -1.48649106586644
C         1.24401170072217   -1.43230248976262   -1.96451808592049
O         1.98562573756959   -1.85777833199488   -2.85503899742324
C         0.20298668856830   -2.37890902261249   -1.39904963820795
N        -0.61396616975971   -1.87338953030266   -0.48132406534450
O         1.34980222904130   -0.98219257845586    1.53611964824514
H         0.81791666983660   -0.98896941869467    2.33902428252954
H         2.18644717309386   -0.55280229985057    1.73614310413771
C        -1.54214120804499   -2.63814208896690    0.07142609497600
H        -2.16541521150986   -2.16439487132347    0.81413263791757
C        -1.69363897211948   -3.97157300181588   -0.28818730873289
H        -2.45753662635686   -4.57128461911290    0.18118631552248
C        -0.86251547551039   -4.51886204861129   -1.24414130448134
H        -0.94584604647815   -5.54962512405354   -1.55146475637491
C         0.12154748943824   -3.71266777272443   -1.83231484528421
O         0.93531886563261   -4.20056437881929   -2.75910677179425
H         1.54573636683320   -3.45063137699254   -3.03020820589574

