51
CSD_code = QAFJEM | q = 0 | S = 0 | Stoichiometry = C17H28FeO3Si2 | MND = 8
Fe        2.77232499945214    1.19742176470169    3.58044037150721
C         0.89532761452305    1.01388550978233    2.47689130650531
O         0.67379168288785    0.81145993441044    1.15605975721365
H         0.82111402046576   -0.11712091639185    0.94262476704801
C         0.98333578297200    0.01496162122745    3.49372092739433
C         1.01130436825073    0.73318538207884    4.74333101015040
C         0.88598931793344    0.18275960222130    6.13039930509990
H         1.52483171897603   -0.68994646964568    6.26417817063395
H        -0.15039924020656   -0.13564278600769    6.29259424128871
C         1.25526782668670    1.26914554970973    7.13932248312260
H         1.06355894272747    0.91433409196725    8.15359514711356
H         2.32096028179326    1.49191346596733    7.04657903530351
C         0.44883100738573    2.53531088589780    6.86058921426117
H         0.58260829692094    3.25446840117195    7.67036860425054
H        -0.61252559500661    2.27747921112297    6.81460429117555
C         0.88277408436847    3.16935718867648    5.53705251765604
H         0.15235716457477    3.91716569180063    5.21912625329474
H         1.83725673872017    3.67995608157727    5.67241334375261
C         1.01307673314256    2.11906557212981    4.47303225828036
C         0.99532405558643    2.31148186249431    3.04824498199300
Si        0.81980483960058   -1.84017961170201    3.20271758655440
C        -1.04018565791396   -2.26690126233753    3.10084325923141
H        -1.54028193241996   -2.08649834383337    4.04770507673746
H        -1.18298556513694   -3.31357107755779    2.85021302704383
H        -1.54999869571821   -1.67480433084493    2.34590268866485
C         1.67253422669303   -2.86378216144836    4.56079722765471
H         1.10011872823733   -2.87881431328648    5.48238077931889
H         2.66178584191341   -2.47677070843970    4.78490897971963
H         1.79095732380493   -3.89367375203755    4.23842419106190
C         1.67380292705776   -2.25117508713981    1.53816472129047
H         2.53831422646360   -1.61428878018464    1.36576234961931
H         1.00386484111627   -2.16207239298818    0.68607763559101
H         2.03293772639495   -3.27566561190814    1.54018715084521
Si        0.95622812403409    3.92350664481023    2.06610980669762
C        -0.87175087618963    4.42957143437322    1.82762589672153
H        -0.94103560623330    5.36024097710594    1.27371415810749
H        -1.38239515071092    4.57292425534534    2.77547054893897
H        -1.41638373949515    3.67323418498111    1.27100889356316
C         1.92857030218571    5.25234561869395    3.02681059070239
H         2.21851420973689    6.06665651219705    2.37075021093973
H         2.83562222474536    4.82177182567261    3.44072777886629
H         1.35783372298344    5.68106738368411    3.84357629115572
C         1.82084427362375    3.63772991573216    0.39564773977873
H         1.89336572200633    4.55746006102589   -0.17646155218358
H         1.28904712815959    2.90995127756994   -0.20710498288504
H         2.82785671372773    3.26231670449263    0.55371449075335
C         3.78908804429008    0.96328683276422    2.18954772971264
O         4.51148974307116    0.79465642311130    1.31079947043851
C         3.87577056132171    0.23158979576327    4.50714754977572
O         4.64195240889109   -0.39562392318879    5.09217060547453
H         3.58520356160250    2.32326986467681    3.92309211307013

