79
CSD_code = QAFJIT | q = 1 | S = 0 | Stoichiometry = C28H42CoN4O4(1+) | MND = 6
Co        3.55464674032946   -1.72537787402309    8.35376734772018
N         2.73479292843794   -0.24130375323957    9.28440412376050
O         4.73151205705644   -0.55432618228124    7.49368582642921
O         5.59690243470744    1.63415514152072    6.40403200288930
O         2.37624918902040   -2.89647185979661    9.21078202013133
N         5.04547190818284   -2.17229419183327    9.86194510809247
O         1.49102558504752   -5.08538970696926   10.28174406916367
N         2.06442333380291   -1.27689606319304    6.84661826135586
C         1.91098501925211   -0.31929187126331   10.27752708630823
H         1.51080617382412    0.61120382795261   10.68582967677476
C         1.15575166065759   -3.92794853527149   10.91795167670486
C         5.41348654706020   -0.69885477645028    6.41004234229655
C         5.00713103562561   -3.59311540983062   10.27800458269498
H         5.76306923560583   -3.74076683487712   11.06219362419843
H         4.02742783857017   -3.79035433571381   10.71334584418334
C         0.64161254503058   -1.42847860038509   12.06649881053656
H         0.44999937254041   -0.46187102292650   12.50669485661073
C         1.43066494058024   -1.50069365159633   10.89787967583981
C         4.81982135687084   -1.37189629871351   11.07298744965513
H         3.85669754365496   -1.60919903897443   11.51925906531822
H         4.85129517524066   -0.31254223931659   10.82856084865075
H         5.60059253303524   -1.57921415662881   11.81374361914229
C         0.13957470698840   -2.56492212481519   12.63163449268538
H        -0.46038679253710   -2.51419583852577   13.52558496555930
C         1.69451600758619   -2.75426249068896   10.29478976907292
C         6.47711883063933   -2.02931682717941    4.64805512989668
H         6.67442827220931   -2.99746730724893    4.21380846225496
C         6.97629697333403   -0.89380316300307    4.07858738032739
H         7.58059561843320   -0.94676496110595    3.18769623924356
C         4.24305976806833   -4.51833689450955    8.03631802027076
H         4.44205856213164   -5.30699744922456    7.30208461403971
H         3.23511158574988   -4.63869916958061    8.43277103971630
C         5.25519835575633   -4.62478181114184    9.18017641324449
H         5.16908492366407   -5.61235825615142    9.63532475379274
H         6.26759434153279   -4.53044819217415    8.78142700472752
C         2.86605449212642    1.06668619195267    8.67521679185556
H         2.66782435122210    1.85445510752762    9.41062074073613
H         3.87338566546318    1.18763637529902    8.27735973295435
C         5.68371474053700   -1.95425402008988    5.81352706149530
C         0.39800018882257   -3.81862783810160   12.05840415582612
H        -0.00653041305497   -4.69747168926950   12.53383938202496
C         6.70785159640126    0.36196564125836    4.64255366016465
H         7.10892077389716    1.24008754841719    4.16289072956504
C         1.85263903139536    1.17408396595264    7.53261820201178
H         1.93728160731648    2.16257754976856    7.07921358837009
H         0.84072543967156    1.07796164983033    7.93214054779710
C         2.10135928506998    0.14464155405737    6.43286809603904
H         1.34519205692446    0.29282104283572    5.64901688670345
H         3.08083699555927    0.34382319353198    5.99803374370017
C         5.94482344276523    0.47415432921291    5.77923024639594
C         1.00088712917747   -6.31218733020745   10.79344121287216
H        -0.09673569445228   -6.30335782606917   10.79959010030692
H         1.35791249810524   -6.45778647440014   11.82187735789051
C         5.20320980626267   -3.13455872871813    6.43566552251335
H         5.60613827875056   -4.06558705024644    6.03128484432022
C         5.52201411708566    3.97952502436356    6.74918588036597
H         5.87049833424388    4.93785627175155    6.37685102170970
H         5.86177892919629    3.85210156067427    7.77321826720437
H         4.43536616047577    3.96881734949796    6.73849153015454
C         6.06663268541406    2.86154873633823    5.87496718837124
H         5.71573813641329    2.98187126669105    4.84116372864709
H         7.16423473120027    2.87500940197599    5.87817322714699
C         1.51492816903317   -7.42522463334498    9.89474276159208
H         1.15023529233057   -8.38281295210604   10.25319973248547
H         2.60159148445515   -7.43668609322468    9.89542745302914
H         1.16865564073138   -7.27264402871984    8.87632467116064
N         4.37536601788904   -3.21108446217616    7.42552121383086
C         6.39790383521866   -1.83742184695894    9.39475514080661
H         6.64763295609438   -2.36892184275563    8.48155308544086
H         7.13524436872392   -2.09314245667055   10.16321614883228
H         6.45882979122303   -0.77085224793437    9.19149067193192
C         2.29239438613176   -2.07535488186541    5.63477531498420
H         3.25608017481575   -1.83680065490758    5.19035735202072
H         1.51260587988088   -1.86756921952198    4.89312145553804
H         2.26138572864035   -3.13506195823909    5.87772786850697
C         0.71194793205914   -1.61368447834097    7.31223510396092
H         0.46139050868908   -1.08401823974197    8.22630806756824
H         0.65159127885970   -2.68066697879511    7.51345724411700
H        -0.02505411845569   -1.35696390936950    6.54378706376240

