64
CSD_code = QAFKIU | q = 0 | S = 0 | Stoichiometry = C24H30CoN5O4 | MND = 6
Co       10.56017586698397    1.33453652045878    2.03312219265312
O         8.78885558860494    1.27636527253779    2.64957209122078
O         9.87590549046785    2.46418434790915    0.65843017709972
O        10.30922209921825   -0.09169509727774    0.86129835839795
O         8.16038706907292    3.17252351674724   -1.16968348263998
N        11.02992247189993    2.96925956926280    3.32206375941898
N        12.31553607747637    1.49822828789611    1.34472035470499
C         6.48453945068522    0.89572442837664    2.68387217766943
C         7.83668612825406    0.62975379928667    2.12637791158700
N        10.55462336273743   -0.87635584239209    3.66562590006111
C         7.96861272624468   -0.32324949617877    1.11268530224057
H         7.09965975801943   -0.86252426391890    0.77586685220041
C         9.41343875796093    2.84992380497750   -1.60313223487436
N        11.03929868498267    0.15867360050390    3.40411809946397
C        10.30159729281801    2.44907913292068   -0.54535741459680
C        11.62871377477764    2.08839547210695   -0.90473706704257
C         9.20853859664822   -0.63689719285231    0.56331647602688
C         6.35369908276139    1.16500054250097    4.04344601213846
H         7.23679903809319    1.15139249776877    4.66430547875992
C        11.05004730907020    4.22982700519583    2.57699007461160
H        11.79013314987593    4.19861216863054    1.78148868624628
H        11.27675978627308    5.06941688892205    3.24690561122209
H        10.07708590470987    4.38791447694378    2.11779496259460
C         9.99885243423913    3.08936276417011    4.35737052980401
H         9.94406990972245    2.16453801625367    4.92665731058492
H         9.03360813389314    3.26533329924391    3.89081273485615
H        10.22957987251451    3.91913936304845    5.03750835269448
C         9.27635625201862   -1.73692639726004   -0.47064635818177
H        10.25716700643670   -1.73910197399530   -0.93833314851288
H         8.50703962840709   -1.59477847089196   -1.22485791188528
H         9.11204751266617   -2.69592373811120    0.01737179313819
C         4.11232526777860    1.18903055347079    2.42140905623290
H         3.23814241631042    1.20925174174771    1.78674503850328
C         9.84114346020328    2.86696502839694   -2.90608068001286
H         9.17045697701558    3.15142965210016   -3.70250238627059
C         5.35263169715361    0.91447567297363    1.87500775593664
H         5.44808619463544    0.73401500627987    0.81496828164803
C         5.11064528507324    1.42565405073519    4.58840612999098
H         5.01674499601868    1.62195083478830    5.64649972038706
C        13.43217730799558    1.34591772491724    2.24496892900471
H        14.36787493219630    1.21322679725967    1.68620317921156
H        13.25689241175153    0.46896847890463    2.87118223175639
C        12.31328794942777    2.77535083410018    4.02332712170317
H        12.20718269605605    1.88366001037130    4.64368213317675
H        12.48951494027158    3.64190897152160    4.67988448508146
C        13.53993109978817    2.58773400216943    3.13429887011281
H        13.70593928609188    3.46717079273631    2.50849207620006
H        14.40788946750518    2.47632351923186    3.78721795525960
C        12.56550994064421    1.73310115909623    0.10147516407925
H        13.60798329423685    1.68766091388969   -0.22810624336339
C        12.03323964211416    2.13624068707612   -2.25460188021417
H        13.04746535539264    1.85695770999689   -2.50254342534035
C         3.98711058560308    1.43863677594072    3.77835203673143
H         3.01562444678474    1.64685731543994    4.20226930407864
C        11.15871235882210    2.51063833486312   -3.23340074498865
H        11.46635937644152    2.53688281473125   -4.26745462102275
N        10.18436745770284   -1.88236530238904    4.03822286145792
C         7.17089041751039    3.48447294440430   -2.12249914027528
H         7.04805677954791    2.65008022631566   -2.82899658625452
H         7.45749620331130    4.38136075362233   -2.69186382886318
C         5.87192304693017    3.73271957021592   -1.37058604590770
H         5.07038953139757    3.94825603544604   -2.07165025846108
H         5.99157333209697    4.57273091109861   -0.69228487216913
H         5.61277362865382    2.85590317575552   -0.78381519906881

