29
CSD_code = QAFMOA | q = 0 | S = 0 | Stoichiometry = C8H14N2O4Pd | MND = 4
Pd        7.09542623517574    6.00755354814864    1.12447078217286
O         8.51576242565140    7.38272653222647    1.40401639594097
C         8.34550101062837    8.16066065198549    2.41867347073053
C         7.11220650562603    7.83986549028060    3.29796941868227
C         5.83890177764350    8.12730511941403    2.46381565353225
N         5.68724957281456    4.53371378519655    0.48124754554270
H         4.94493782010060    4.28191829960720    1.12991954348053
H         5.25582567860497    5.03567047964782   -0.29981027299818
C         6.43393578213600    3.36233269177466    0.00903181224206
H         5.88015452799414    2.79830476461157   -0.75285281100710
H         6.61691037091113    2.70075705860430    0.86176273905733
C         7.77976087589665    3.82501521178493   -0.56682944583196
H         8.34471388733025    2.95581244662410   -0.93105606903628
H         7.59733820265990    4.50622469711048   -1.40787105968888
O         5.65638620943255    7.35082497526604    1.45073589641301
N         8.51150419003639    4.56683083214580    0.46831707210157
H         9.29721601448990    5.08738738080881    0.07733256301386
H         8.87249041021938    3.93927898954095    1.18631433548587
O         9.10207621181462    9.05950832270217    2.71407857518634
C         7.14486439890835    6.41326808707055    3.92302004700730
H         6.24640809955949    5.80482167368131    3.72027058889849
H         8.05995801520295    5.83973919337969    3.69584074730349
C         7.15327764425262    7.05680571299432    5.32321607013778
H         8.04814715693963    6.83961631657208    5.90300716263254
H         6.27662628978184    6.81839742482252    5.92213849333147
C         7.12828979454949    8.45995265544490    4.69850024116907
H         8.01406721513989    9.06567775790797    4.87621635950025
H         6.23663880540630    9.04751583541156    4.90534181296487
O         5.06772487109310    9.00211406523499    2.79198233203306

