28
CSD_code = QAFMUF | q = 1 | S = 0 | Stoichiometry = C13H8ClN2O3Ru(1+) | MND = 6
Ru        8.68931700557189    3.07191058715971    0.35821043086398
Cl        9.09881652413078    4.35183464402184   -1.56738312722702
C         9.39090419436766    1.66732836139075   -0.71062620278048
O         9.83766117996033    0.97055725863130   -1.47575349395227
C         7.00071905955902    2.79245052181551   -0.46498766764181
O         6.06147991235899    2.74770936054725   -1.08656695606191
C         8.40540412217922    2.11824129827327    1.96903581369065
O         8.24448711808773    1.55887191196565    2.94058843763335
N         8.17044260795055    4.88127441380674    1.19639316365784
N        10.53365420669289    3.76499432818504    0.96079881509181
C        11.69049560584210    3.11031092845055    0.87866609597538
C        12.91706215575455    3.73208563363977    1.04198876106548
C        12.94451223499766    5.09462117652668    1.29668538048278
C        11.74381619762492    5.77518868314643    1.40360821565861
C        10.54462348976247    5.08594472534237    1.23167863814738
C         9.21950648606118    5.71267160067841    1.36002162665645
C         9.02945002030576    7.06070946981285    1.65877391007900
C         7.74383982269091    7.55635538404653    1.79235810538360
C         6.67578366766650    6.68453774380309    1.64665032608252
C         6.93597368194037    5.35792247085101    1.34640291441473
H        11.64007765938136    2.04562523550000    0.68252587927993
H        13.82591288228359    3.15858189209732    0.96122186667727
H        13.88080644886983    5.61725711045505    1.41337148144079
H        11.74453955971220    6.83247782188848    1.60825765969790
H         9.87216609662872    7.72112447362774    1.77465398285893
H         7.58075510777513    8.60034155962909    2.00885226857151
H         5.65791728486455    7.02239026226365    1.75271881828171
H         6.11977566697880    4.65438114244128    1.23065485597065

