60
CSD_code = QAFPOE | q = 0 | S = 0 | Stoichiometry = C23H24MnN3O8S | MND = 6
C         4.98496399326249    5.45852812950975    5.67401931616639
H         5.10416916390288    4.57849650229818    6.28843244125565
C         5.57254977564933    6.65307205461526    6.06643035525527
H         6.13500627290742    6.67717509442125    6.98746228500207
C         5.44445500889735    7.79631429431170    5.29591679271330
H         5.89949119738410    8.72982152186225    5.58939102972347
C         4.67901545759466    7.71295545513814    4.12270838960431
C         4.12587278968575    6.45747514085588    3.80258880653534
C         3.29608147594011    6.30684502287239    2.67143803619598
C         3.00238867371655    7.40199809731194    1.83444801252854
C         2.12469570424546    7.17202555089522    0.76335306109105
H         1.86889181256046    7.97166716088209    0.08547491688707
C         1.59710180473268    5.90383056341081    0.61221386928470
H         0.91222852881935    5.68972875537238   -0.19346741477037
C         1.94327902198708    4.88095950116056    1.49049973885775
H         1.53397000021431    3.88829506836121    1.36334391579896
C         3.60703353574626    8.65060509092219    2.15082779664693
H         3.40102531266428    9.49310095295660    1.50668632758806
C         4.40677886131871    8.79782922132119    3.24154456251540
H         4.84180673048289    9.75950472404753    3.47302301684609
C         6.03923794104657    3.27895971635635    1.95968492535008
C         8.22150543698917    4.96306707575130    3.90381296457037
H         9.24038931761971    4.70783880392603    4.20959895625216
C         9.14488778723433    2.19767800428658    4.70084276085392
C         9.73597678030381    1.79233819455265    3.51908722365619
H         9.13615158583654    1.74014799173612    2.62398043248845
C        11.07735942748417    1.45518399646450    3.52208276647134
H        11.55096555289431    1.13316297365916    2.60680681330968
C        11.82527290474587    1.52371516265699    4.69533610279765
C        11.20429844433071    1.93784401168597    5.87026439668724
H        11.77565328315702    1.99202748283637    6.78501427964255
C         9.86251852321496    2.27793657222160    5.87747677000092
H         9.35802815936134    2.59373139547625    6.77714121582504
C        13.26884690073900    1.13033384153113    4.69629291140378
H        13.35592966590871    0.05785327635123    4.87128006173491
H        13.81348104292673    1.64441558473926    5.48403369832452
H        13.73286556878606    1.35112360660019    3.73834862533159
C         8.00465686779942    6.31703444231441    3.34457367404255
H         6.98368925713884    6.41943247799519    2.98815229217467
H         8.70665970997169    6.50013193351621    2.53190627504105
H         8.18885977218055    7.06462641823223    4.11697321280814
C         2.62081035870760    1.32667216378684    2.05105607145378
H         3.42556120163232    1.50824277664331    1.26898889964792
Mn        3.53035470858850    3.78961658113930    3.73181449960320
N         4.28194085589366    5.31760143890217    4.54465677341825
N         2.79004987823401    5.04723200337549    2.50700455574887
N         7.26202957215935    4.13147770425438    4.01178701854962
O         5.07008870966859    3.52408612717572    2.53194431146117
O         6.96045619450049    3.09343940924002    1.28520863967748
O         2.62169339862343    2.14871469719065    3.01222184433966
O         1.86032947075380    0.39299041496194    1.90576099721852
O         4.26322372922278    2.32681017734851    5.25027904683551
H         4.29067891260388    1.49705292310594    4.75574459122936
H         5.16056027573998    2.44756132526048    5.60788363550530
O         1.72490961746842    3.63546246430495    4.99858429357358
H         2.04655580639369    3.19009003983098    5.79570784462503
H         1.37521219418936    2.92504009035391    4.42401615732155
O         6.71053838392995    1.71944930962454    3.80761646815549
O         6.89922756950888    2.70777793463950    6.02158515806110
S         7.41574011096591    2.62727155355148    4.67151357910978

