43
CSD_code = QAFSEW | q = 1 | S = 0 | Stoichiometry = C18H18AgN4O2(1+) | MND = 4
Ag        1.92312675322609    8.58332249885314    6.03785936134523
N         2.76153488700865    9.70349753555760    7.75137529355380
N         3.48763572858362    9.97246102189050    9.82511692335275
H         3.64092775598162    9.79252279206774   10.80426597873491
N         1.31188321844393    8.03190327819015    3.98457252386777
N         0.23308133037882    6.86186457273691    2.44610670417386
H        -0.28631363779959    6.11088587876795    2.02085331206812
O         1.88738284970188    7.14762438446996    8.23357804977534
O         0.49905188435073    6.37879784622161    6.02026123565902
C         3.50079043020008   10.86513605739878    7.80021102905342
C         3.80031478197692   11.78384172326791    6.80167817559776
H         3.43615774969158   11.63421618766286    5.79567956851064
C         4.56629337757275   12.87352097242472    7.15601387962504
H         4.81947055999934   13.61114803472143    6.41079525701292
C         5.02623227805376   13.05236550818316    8.46420492684187
H         5.62274463149740   13.92124363694620    8.69321194086444
C         4.73750608276006   12.14970978009435    9.46781446755591
H         5.09403944462689   12.29106719816864   10.47539107756659
C         3.96662898476485   11.05223176794448    9.11605808324874
C         2.77916977361315    9.20521425190525    8.96451040983942
C         2.06501279290252    7.95754103396461    9.37025247501276
H         2.63996125423798    7.42094239107723   10.14160695362477
H         1.08800937780448    8.23214311462105    9.80145925400466
C         0.86058230405132    6.18509850088552    8.35796140958705
H        -0.09636682921411    6.68116997424648    8.56930803270305
H         1.08845174193553    5.47692529478598    9.16604563079505
C         0.76449151637667    5.43367383207760    7.03659413631886
H         1.71532943642136    4.92209249090955    6.83482810903926
H        -0.04228616382069    4.69065650074430    7.09554054783028
C         0.42943405273706    5.83398426836718    4.72489972244605
H        -0.55104418571371    5.36077457569816    4.55665459537746
H         1.20782612293038    5.06468299698814    4.59071129878806
C         0.65520427806861    6.92544295307021    3.73026998333083
C         0.64815043185917    8.01571644530242    1.81820949224298
C         0.50851015044593    8.49195009141962    0.52351585030349
H        -0.01348226540847    7.92866206387287   -0.23314982690608
C         1.07042741245493    9.72293332426370    0.25133818721161
H         0.98545804960551   10.13238505119086   -0.74284352093792
C         1.74803927141989   10.45708212388060    1.22943391510754
H         2.17015486780198   11.41303038974352    0.96204378761927
C         1.88849970698379    9.98801798507049    2.51787898773855
H         2.41192179903095   10.54337790107538    3.28247663535543
C         1.32775601245622    8.75044176927224    2.80900614515910

