89
CSD_code = QAFSUN | q = 1 | S = 0 | Stoichiometry = C45H38ClN2P2Pd(1+) | MND = 4
Pd        3.23478300874854    6.62065921115266    7.98510427942696
P         5.23768350946872    7.38134431914176    8.71334557604655
P         1.21345438469711    5.78335801901731    7.38544216960377
C         2.83039682998338    8.55870053567073    7.96308371988409
C         3.06393074110121   10.72253651407175    8.48696541440736
C         3.35266688648981   11.94717060950149    9.06939172266084
C         3.21396262346377   13.06715501059429    8.27237994697057
C         2.80405644518717   12.97532243852477    6.94269730688598
C         2.52862258666095   11.75697725010242    6.35243964348402
C         2.67310599469332   10.62811023126672    7.14382181712633
C         2.20782780469921    8.76266513503714    5.56877809662689
C         3.66723867024785    9.06090474866070   10.21759954989886
C         3.09688062789568    9.58007175514977   11.40357787998047
C         1.89634834256014   10.32516043251939   11.41909952126615
C         1.38423949427923   10.79245279655310   12.59674885644244
C         2.04367880926006   10.54520829958053   13.81139350845016
C         3.19331098035812    9.80681228269636   13.83196143566441
C         3.74310906192420    9.29298072705284   12.63862989314244
C         4.90320586516479    8.49099334522463   12.64301993525412
C         5.39210804644144    7.94933664327122   11.48778991502407
C         4.77766777792442    8.23260647657931   10.25427528822688
C         6.71954978440406    6.42555745175060    9.09954624574703
C         6.56009016521147    5.24278229997357    9.82006571060595
C         7.66605889503951    4.47456949352624   10.12940364378730
C         8.92658787429900    4.87804609971366    9.71574598270247
C         9.08304589754686    6.04835521929309    8.99011859578067
C         7.98271752786323    6.82528995294742    8.67469348225149
C         5.74581259487060    8.69570039809279    7.56983037848054
C         5.52024270297643    8.44106026690998    6.21774253324250
C         5.81141800782865    9.41000768998708    5.27590645696526
C         6.30666926654467   10.63985593718805    5.68430442348211
C         6.52561590844784   10.89575114210025    7.02822955438074
C         6.25159181726879    9.92459260357022    7.97585933271890
C         1.16190308266595    4.58816804161613    6.03238877655522
C         2.14753270142045    4.68311537135122    5.05443054258484
C         2.15759054050202    3.79732649294481    3.99395253149395
C         1.18474707387091    2.81355431180580    3.90971474992408
C         0.20470261818536    2.71405720058130    4.88466892997686
C         0.18761437699105    3.59901600534258    5.94785899696933
C        -0.16996403581759    6.92869243673372    7.06807080599201
C        -0.31932779808710    8.01933499827228    7.92236660228994
C        -1.34017778363825    8.92826122949711    7.72231402453735
C        -2.21660179093458    8.76067823010476    6.66054361196376
C        -2.06692945440618    7.68402036208288    5.80266972375426
C        -1.04547931754209    6.76996563229259    6.00025878627525
C         0.66451417603222    4.90821623045365    8.92319757483641
C         1.03167094571356    5.81766573623969   10.05813597198992
C         2.28039629142298    5.93712718467503   10.50009960753762
N         2.54259653257351    9.28174529716358    6.86837152684942
N         3.13249182453352    9.42086506398712    8.95735127940921
Cl        3.90436054663117    4.47426668649571    7.78187199591490
H         3.67384046589053   12.02224229620316   10.09575613005350
H         3.43014584449041   14.03823627409415    8.68858519544009
H         2.70719874696234   13.87791003111275    6.36056105652489
H         2.22138265121526   11.68834193956260    5.32173404435025
H         1.16723992641649    8.98650321889326    5.32326178583796
H         2.85819456887005    9.21515354267517    4.81859817521941
H         2.35479179222855    7.67534653429321    5.56652652537090
H         1.37490901055036   10.51173954530458   10.49196083126206
H         0.46347697623404   11.35543244753944   12.59912490203350
H         1.62807791620188   10.93364997552354   14.72805758689317
H         3.69671124731061    9.59628097234870   14.76335072736653
H         5.39085881122041    8.29212803364068   13.58538027985800
H         6.26272557621582    7.31007400227586   11.50416773110511
H         5.56853036769872    4.92784908253763   10.11889445336931
H         7.54560752373569    3.55712337015935   10.68496791167234
H         9.78902360202455    4.27403791497332    9.95253818449378
H        10.06508038615533    6.35532691610793    8.66355255628121
H         8.10145803877206    7.73393383143638    8.10088675914933
H         5.11537052730211    7.46874537045349    5.92441803072276
H         5.65288281421498    9.21333956586706    4.22585524451983
H         6.52370202833247   11.40155663309849    4.95144485873108
H         6.91099900190073   11.85442992968288    7.33982245875468
H         6.42317883037309   10.11626773438905    9.02660098194475
H         2.92899408924550    5.43545916533251    5.15414284610238
H         2.92699206116903    3.86403523636444    3.23980486886042
H         1.19601892299452    2.11572644088804    3.08663042996045
H        -0.54575345459106    1.94088924561615    4.81925732704267
H        -0.57452593054735    3.52049200715996    6.71017998524028
H         0.37478056386018    8.14580711646623    8.74577926687956
H        -1.45566360290351    9.76830241844066    8.39125701571898
H        -3.01389867264811    9.47046133510614    6.50281400477584
H        -2.74757647960758    7.55383203259882    4.97518129894449
H        -0.92904827512238    5.93432106490081    5.32523467199428
H        -0.40715831983272    4.70071126649868    8.88854248328953
H         1.23562392996914    3.97455072752991    8.96376811739804
H         0.23767459953808    6.42849150129620   10.47006036733869
H         3.05744235406324    5.24057976459349   10.18720794147287
H         2.51619209656290    6.60101966695994   11.32093510856316

