57
CSD_code = QAFVOI | q = 0 | S = 0 | Stoichiometry = C18H20B10Cl2MoO4P2 | MND = 6
Mo        3.79066647263748   12.31973627098338    1.58911269451579
P         5.86448723724232   11.98413815588935    2.73110978044705
P         3.03596817576921   12.96307343642409    3.75852984940721
Cl        6.49606847453587   10.12334647535004    2.49589619307414
Cl        2.69251659891214   14.91015912240054    3.91546143711666
O         3.27665779330151    9.28376482095661    1.88818911372151
O         5.03353468396304   11.56853379476593   -1.13687335988614
O         4.03531270227274   15.29377606905931    0.77711178814268
O         0.97076708649373   12.58059947906602    0.35964877765497
B         5.60674746269983   13.73968634794994    5.18760563055844
B         6.99180756065910   12.73082669856630    5.59558947377446
B         6.44691996737703   11.05400737088352    5.69639752627845
B         4.70551734546267   11.01570858099170    5.36113660043570
B         3.89487653243370   11.93782967986340    6.62607908622746
B         4.43428832009084   13.61879187030905    6.51217304875853
B         6.17537002661173   13.67882539701290    6.85425570848874
B         6.70311076663393   11.99450084710671    7.17870247678348
B         5.28261229840453   10.91208824936202    7.02568382394154
B         5.11501854411329   12.54672898999781    7.75220972484552
C         5.72861573269620   12.14499745707778    4.58407123938925
C         4.28247607966035   12.65388403190639    5.10865808789340
C         7.41396432174409   12.89023108596622    2.39098585579967
C         7.31641630035460   14.18620042335969    1.89984203886840
C         8.45580073675758   14.91591189407294    1.61290607384982
C         9.70470823192878   14.35148758212511    1.80828353807059
C         9.80963644218561   13.05750707882339    2.29281809924889
C         8.67288296083741   12.32716979530178    2.58473117539183
C         1.48600405911404   12.33290197073243    4.48802653889554
C         0.84887346134804   12.97171459700789    5.54999616679071
C        -0.34220616163285   12.47363305938123    6.04215777415621
C        -0.91059662782583   11.34026394113284    5.48152865594845
C        -0.28743661830070   10.70832228384484    4.41946663728422
C         0.90414067860956   11.20606320718532    3.92195375873512
C         3.46247901211722   10.40898980295433    1.85551553246032
C         4.56563762305388   11.84503239798433   -0.13390462815788
C         4.02047632017013   14.20996726629068    1.13209978879992
C         2.01849950046243   12.49155094764018    0.80313209397962
H         5.63061341870779   14.60301701692847    4.38828676668474
H         8.02584041691620   12.98367673789332    5.10209433712280
H         7.12549879878613   10.19626134745667    5.27455526324568
H         4.16853797826471   10.22608330997879    4.67097908392416
H         2.77044300059868   11.69312438195340    6.85483385088681
H         3.66849995369499   14.49375600925178    6.66782101181797
H         6.68087441493797   14.61197017406141    7.35523886641505
H         7.59255930640938   11.75149482122295    7.90503529425278
H         5.16313431335108    9.92426835872423    7.64778737240124
H         4.86745479702304   12.69898184209460    8.88949795430239
H         6.34187668260576   14.62375939249589    1.73582136789185
H         8.36694922339991   15.92153261950941    1.23061744492814
H        10.59553424054103   14.91636508987951    1.57885591965514
H        10.78216596287545   12.61372708472596    2.44438435172146
H         8.76544494852254   11.32001259601355    2.96299483644341
H         1.28329079648214   13.85714230810574    5.98993381698787
H        -0.83012863223209   12.97271453896166    6.86586709931109
H        -1.84235316329817   10.95604743871000    5.86824783735122
H        -0.73074755453142    9.83178853595874    3.97179314101909
H         1.38029099405364   10.72372591635019    3.07916658194676

