62
CSD_code = QAFZIJ | q = 1 | S = 0 | Stoichiometry = C26H29AuN5O(1+) | MND = 4
Au        6.30863711095932    8.02702249157128   -0.39685096366692
O         7.77376623608822    9.14607282718057    0.15035795740707
H         8.63596847105838    8.74818100339754    0.01781364315733
N         4.88060516514591    6.87098619512560   -0.96230170442636
N         4.60358630703032    7.63446659179312   -3.20632625017784
N         6.25695420269432    9.02848832960600   -2.15355705420012
N         4.75308663613691    5.43549579419686    0.94069339372265
N         6.31899603579033    7.18702869400677    1.44080613990340
C         4.43018363864993    5.79001285890467   -0.24918917875717
C         3.49239625665147    5.04959001346247   -1.08360293523604
C         3.44282458925773    5.70962513568888   -2.32060779954824
C         4.35541563895228    6.84239906623389   -2.22930615660172
C         2.73799470364982    3.91775448852768   -0.84355498304157
H         2.78316749767144    3.41652694298642    0.10940410552643
C         1.92722969333736    3.46058579949349   -1.87621441272766
H         1.32357800696170    2.57906735233465   -1.72380614408648
C         1.87757814651664    4.11458590216475   -3.10094796643975
H         1.23588418647433    3.73018629264243   -3.87888162489409
C         2.63718215787633    5.25307109655962   -3.34532497611525
H         2.60503750003628    5.76623103146173   -4.29243929872108
C         5.44628845012433    8.68802031301446   -3.18846901518837
C         5.44143897897782    9.44845894772262   -4.36414009594175
H         4.77646662867110    9.09739481294338   -5.13551368131447
C         6.22610856876538   10.57674486132920   -4.51946566226623
C         7.02361756056694   10.91237313759594   -3.41778655106036
H         7.66246741478969   11.77823361512288   -3.42519774924601
C         7.00818657407576   10.13389259507941   -2.28927498968916
H         7.61792345094073   10.38998038623078   -1.43496543391014
C         6.19934415375265   11.36740210590798   -5.80666305473311
C         6.66115432200410   10.44727120241938   -6.94706452068042
H         6.00431671199519    9.58951299002344   -7.05878650928263
H         7.67068031051032   10.08747382587797   -6.76113108624406
H         6.66214423317290   11.00026601339960   -7.88236252137743
C         4.76076995171936   11.83827372324019   -6.06710165567292
H         4.40985218058652   12.46137088437808   -5.24759248592999
H         4.07874864473535   11.00089352196088   -6.18072282827546
H         4.73126188329152   12.42614245243630   -6.98044113805091
C         7.11604271089177   12.59122002193184   -5.75775261088979
H         8.15349998786002   12.30251011521148   -5.60718168063654
H         6.81480434242422   13.27816528681395   -4.97050070000278
H         7.05426899163894   13.12285880654400   -6.70366900270052
C         5.59103664575364    6.09100544726711    1.76927467025446
C         5.66036995356657    5.54944951362551    3.06209169332293
H         5.06260922930388    4.66876330166606    3.22147046383586
C         6.42717450777145    6.12110599674943    4.05684044772756
C         7.11838292709272    7.28791279656668    3.69269340961969
H         7.72266085042716    7.82660736472351    4.40311255896707
C         7.04240457493529    7.77031506593815    2.41466467005778
H         7.57632248333957    8.66424566097905    2.12771456819435
C         6.52677135890384    5.57074146174292    5.45954263188486
C         5.95402000233554    6.61719319561444    6.42780015443853
H         4.91341060604232    6.82615245637836    6.19009873639520
H         6.51108523784240    7.54891939640237    6.38691273872096
H         6.00326545598014    6.23623630678986    7.44417509473880
C         5.75034454237372    4.26351633248425    5.62735601980536
H         6.12153956669130    3.49718625466669    4.95129472280981
H         4.68726360390542    4.41095519946450    5.45467295256184
H         5.87452880048913    3.90076476870821    6.64430388095165
C         8.00511467945555    5.31158839259514    5.78583601487507
H         8.59248617079426    6.22455699190572    5.75245258938187
H         8.43086231074351    4.59990805247970    5.08202458379990
H         8.08798825981928    4.89443851672943    6.78568657967421

