43
CSD_code = QAFZAB | q = 1 | S = 0 | Stoichiometry = C20H16AuClN5(1+) | MND = 4
Au        6.40397937624273    2.79270280208998    3.23134652954545
Cl        4.45250669959242    2.73484981274151    2.06932497496898
N         8.05481448776051    3.28261407573756    4.18299597880626
N         7.08430774417396    3.98219309676571    6.24947664409648
N         5.35574858289934    2.89466383247685    4.98057666884832
N         9.56986494806631    3.24126906240730    2.34085173380482
N         7.47301471109172    2.37686430001904    1.53708057526496
C         9.24341932516738    3.52996208170486    3.54562795659001
C        10.11985484346754    4.23072086896510    4.47507782635776
C         9.37365147672469    4.45674060844397    5.64270814893178
C         8.05229404107338    3.88693852064451    5.41483044784652
C        11.42707552753680    4.66278504741334    4.36385003923260
H        11.99264478683011    4.48678975873046    3.46357740135455
C        11.97287108455087    5.32918579410301    5.45550372738266
H        12.99148081843566    5.68187824521051    5.40354765134831
C        11.23452045226506    5.55258893038306    6.61120991979569
H        11.69231562126910    6.07483283209057    7.43724521369200
C         9.91823915831375    5.11921307020182    6.72564565581842
H         9.33822477827852    5.28972959220984    7.61773980016741
C         5.85162867286319    3.45976813480697    6.10738382303527
C         5.05794175744185    3.51957224427372    7.26910832359149
H         5.49730936810923    4.00404719281502    8.12541526685524
C         3.80610948673753    2.96733348203072    7.29371820754905
H         3.19683842095374    3.01669704909682    8.18339323872950
C         3.32762322252534    2.32244453724982    6.14591003735656
C         4.14042992927318    2.32019639237061    5.03034313106251
H         3.78747620998582    1.84985279282671    4.12740520619439
C         1.98933657047681    1.66991819143775    6.11905240815487
H         1.94388458389345    0.87922502199186    6.86658012073282
H         1.77538368736140    1.24446687140239    5.14333580012193
H         1.21514470069943    2.39540184733524    6.36352775842039
C         8.79928688637827    2.63158247006573    1.42110652746571
C         9.48579479885806    2.26029750541158    0.24864194772333
H        10.53513985704293    2.50224442165451    0.21172242974023
C         8.83982636774537    1.61782056396182   -0.77211067019364
H         9.36711190710541    1.33624408094204   -1.67090600786796
C         7.47681835813304    1.32737752025872   -0.63225342285716
C         6.85576375191139    1.72685006963671    0.53372787831216
H         5.80395907367279    1.52861109299954    0.65866206750775
C         6.71722913301195    0.61841524712279   -1.69903949611169
H         7.13811816593897   -0.37307834337967   -1.86117494047257
H         6.79465963889901    1.16357997518626   -2.63840651843105
H         5.66835698724231    0.51630930616317   -1.43746001047214

