43
CSD_code = QAGBAE | q = 1 | S = 0 | Stoichiometry = C20H16AuClN5(1+) | MND = 4
Au        5.69323922359876    9.23589381642339   13.38459253008882
Cl        5.56166643593714    9.66092901627654   11.15693866361675
N         5.36094037591198    8.88584924169825   15.29422666715505
N         5.04974756799334    6.52338333857898   15.17774108590925
N         5.84177180422914    7.22781319601801   13.02023487799034
N         5.04473718992993   11.13758156496177   16.01959751914748
N         5.87857317966464   11.23618541524345   13.76740041174646
C         4.96077213013360    9.86744905018040   16.16555931493595
C         4.37677063280328    9.22629247441364   17.33626586524424
C         4.37718798795460    7.84528669876350   17.08421273128217
C         4.96208196366511    7.65963862768569   15.76281477958490
C         3.87030736659119    9.74094970688823   18.51385493791446
H         3.87340176015210   10.80232485844926   18.69938820694876
C         3.35993432623097    8.83531835039231   19.43721782631981
H         2.95355968068279    9.20173142720705   20.36735682920156
C         3.35934781650592    7.46847544360051   19.18721846474179
H         2.95267260193122    6.79695234396767   19.92751363927085
C         3.86988222443417    6.94761718790918   18.00335205052192
H         3.87271788578847    5.88903654881720   17.80169767979099
C         5.55005046265964    6.28750751744003   13.95091316294557
C         5.75184699154204    4.92431206169506   13.65996056501462
H         5.49018567416644    4.22505952524919   14.43679585656448
C         6.26491699896743    4.53123713797747   12.45407472693450
H         6.41796867482439    3.48613366682465   12.23159939071201
C         6.59083734938951    5.50986483341918   11.50640686397197
C         6.36091244608863    6.82780751846746   11.84520736869932
H         6.58875963697563    7.59853688785628   11.12757317807603
C         7.15827005692403    5.14939087121973   10.17754337931570
H         8.11517050993569    4.64509147148408   10.30435604137922
H         7.30404035363938    6.02856302757652    9.55746443538940
H         6.49195340933855    4.46061936843503    9.66109940012813
C         5.55836903122305   11.79091463013524   14.96088578639547
C         5.75260502055847   13.17015999181324   15.16872611204740
H         5.46431285097815   13.55457989958077   16.13311023900159
C         6.29404845445798   13.95877670349749   14.19041989073118
H         6.44067409352397   15.01633780677196   14.34973742504130
C         6.66295399654956   13.37075203971397   12.97389088922428
C         6.43423208975466   12.01806434620361   12.82409287819342
H         6.69271871065603   11.54505737713592   11.89133774499596
C         7.26936767524006   14.17089362614298   11.87404385535648
H         6.59385616687859   14.97277898531129   11.58060344572340
H         7.47961758678988   13.55485128312941   11.00515283475151
H         8.19571960479974   14.63190111544432   12.21312044799565

