55
CSD_code = QAGBIL | q = 0 | S = 0 | Stoichiometry = C19H32ClN2Rh | MND = 6
Rh        8.19896031860072   10.37970775111018    2.69596470783576
N        10.10930191266134    9.70125978678706    4.80092452949122
N        11.10611664234836   10.15660789852969    2.77986000583391
Cl        8.41504199727788    8.18507958561983    2.05342252605130
C         9.99810449064931   10.07825226740631    3.52300714493519
C        11.21645620327079    9.90814425152746    5.71420009115441
C        10.52919986860071   10.54298508035605    6.92574997435710
H        11.11884545196059   10.44148950662432    7.83465325466002
H        10.36732233418138   11.60498189434029    6.73537776272073
C         9.19084119698890    9.80315303254086    7.00157448384683
H         8.38753824156902   10.45984277510714    7.33047637720682
H         9.25423184963449    8.97035477802824    7.70172887271503
C         8.94865632311856    9.27323197610191    5.57593837666885
C         8.83380666470017    7.75069881725621    5.53175415546220
H         8.70555092384861    7.42921988195037    4.50033501431114
H         7.97164544989669    7.42575031487849    6.10820341847802
H         9.72662051245331    7.28149213027874    5.94004396054360
C        12.32672868911466    9.38783131280036    3.00592074054968
C        12.78689544711680    8.90604755463773    1.61842816718586
H        12.97903756913844    7.83528068781389    1.61472185481872
H        13.70458138850266    9.41429353673875    1.32116045672215
C        11.63532687421687    9.28057013803687    0.68567544380733
H        11.96446457451308    9.48104901121899   -0.33120044564153
H        10.88664925300195    8.48788124363189    0.67301575509099
C        11.02879137919737   10.50616994984902    1.36448900013554
C        11.80232891700537   11.79052552360561    1.07893264483816
H        11.40148785955467   12.61217409388001    1.66775361305497
H        11.71537145505015   12.04665083569023    0.02640445776540
H        12.85541282446137   11.67513922616764    1.32209767855073
C         6.04420766334142   10.44050286658438    2.37575230366665
H         5.69522436661980    9.42377534736539    2.55802580277522
C         6.68708341543335   10.69413200437299    1.18364753962440
H         6.78269254984408    9.87655056200237    0.46906763813835
C         6.86503657436798   12.06598114096851    0.57441756816554
H         7.56975618177904   11.97898549727845   -0.25685182889310
H         5.91020497394967   12.40076855300543    0.15345807629969
C         7.39592799655372   13.11301555275685    1.57317362886754
H         6.56610725423495   13.64502379766886    2.04179770572530
H         7.98166921984379   13.85399849495495    1.02432145233264
C         8.26227805317255   12.50220464826024    2.65602500268668
H         9.29506041139469   12.84824983295151    2.64731977508013
C         7.75885282969967   12.07205280929863    3.88676933735432
H         8.42512223966886   12.15112149002740    4.74634168626542
C         6.29612377239245   12.11291812791404    4.27051210417703
H         6.17283667792763   11.55504555280586    5.20305483573506
H         6.00585585149339   13.14982990465334    4.47825426685585
C         5.36470150793803   11.51128583948355    3.20049638358924
H         5.00007303013896   12.29377877899769    2.53294850716683
H         4.49254079982336   11.07910545692697    3.69597066793941
H        12.09694677824618    8.54310763835990    3.65666943810327
H        13.10323915010838    9.99870248550100    3.47749230638702
H         9.96885792535211   10.64118993920910    1.08906883809934
H         8.04260623457519    9.69519980602587    5.11247397027476
H        11.68476763244566    8.95938359571413    5.99995205193907
H        11.96551029701554   10.56732543439414    5.28122691850102

