67
CSD_code = QAGCAE | q = 0 | S = 0 | Stoichiometry = C34H22Cl2F6P2Pd | MND = 4
Pd        1.43055466933610    5.15237614958475    3.33282021209813
P         2.58529793679613    4.70572036118074    5.17073574685729
P         2.96188552904805    4.33993557424931    1.88600834967020
Cl        0.12254803344943    5.28458179550458    1.52206230746659
Cl       -0.25755109209301    5.82757217707651    4.69262823574580
F         2.71959423674043    4.21306155835073    7.78976695861762
F         0.70051768633817    4.12518746838656    7.06823262409367
F         1.65466531928346    6.02647676877608    7.30055445039558
F         4.81174724093151    6.08804039772237    4.64924151087862
F         3.98766169652285    6.55590762366334    6.56452175887260
F         5.08236740611671    4.72867267446778    6.31076072400850
C         3.01266558376635    2.94492180765147    4.95375959001084
C         2.05465642919324    2.00897935955772    5.41576653385903
H         1.21021643470909    2.33904566946862    5.99875235714858
C         2.17188753752490    0.68407646811207    5.11755296921850
H         1.43764301841179   -0.01909098058066    5.48071734464030
C         3.23672942116514    0.21110079848980    4.32557946621475
C         3.36904651075912   -1.15566729063399    4.00734281169171
H         2.63981014655517   -1.84829217081397    4.40066567406402
C         4.39689577581461   -1.59355790021435    3.22148558519702
H         4.49633582335513   -2.64185473320881    2.98360787864380
C         5.33058807859296   -0.67762615377080    2.71550812032328
H         6.13764487818265   -1.03258335587863    2.09234053661262
C         5.22548711713189    0.65453701729120    3.00146245168721
H         5.94852058077220    1.34760003685915    2.60086523511094
C         4.18300104936352    1.13998334291431    3.82210101558929
C         4.04291624365728    2.52476713948594    4.12506816271256
C         5.03376509974980    3.45233551035237    3.53059019018610
C         6.36630930931050    3.44984339441259    4.02352919648732
C         6.75728898188220    2.66080002138485    5.12858409279012
H         6.02278932846806    2.03827658263311    5.61598829953973
C         8.04263878992455    2.69496700265993    5.58929819714170
H         8.32768406229450    2.09163932876337    6.43770755772687
C         9.00069535736198    3.51549824273933    4.97370710814897
H        10.01047948761554    3.53125699224721    5.35547461193658
C         8.65386203769570    4.29143941823721    3.90426084982648
H         9.38119214902210    4.93150064200127    3.42657215035499
C         7.33573891976131    4.28118276346041    3.40308963036401
C         6.95606060197120    5.07240888594556    2.30004767119727
H         7.69959310797712    5.69762593022938    1.82801767276882
C         5.67378237697577    5.05734909625638    1.83598527747352
H         5.39205110324738    5.66930992983192    0.99173686722044
C         4.69698307835740    4.24163189300807    2.44272093919074
C         2.55116028634928    2.62444373547219    1.46852792203307
C         3.40451817546687    1.83038835120691    0.70804891817064
H         4.32948303974656    2.24450755021376    0.32981757286381
C         3.07184768210901    0.51190993651380    0.45828714044242
H         3.72897398139350   -0.10519910847920   -0.13619435734552
C         1.90286570729052   -0.02043839914652    0.97772092317584
H         1.65105539730525   -1.05222022350571    0.78415645865679
C         1.05879261333684    0.76452831918900    1.74700157689227
H         0.15085619789737    0.34555559027494    2.15335670944705
C         1.37894592239156    2.08648123980733    1.99464976118837
H         0.71614135998301    2.71583778033377    2.59766753158586
C         3.02514258914512    5.35407932859135    0.38876961650760
C         2.90707366678361    6.72508741496514    0.62410159479774
H         2.77872142550236    7.07832863268381    1.65188142786503
C         2.92225845100726    7.60921972352771   -0.43534600984410
H         2.82649478472131    8.66983196326830   -0.25858365381246
C         3.04123450891527    7.12705130234022   -1.73147255123893
H         3.04137324044157    7.81652978102244   -2.56234013504338
C         3.13923942436611    5.76617596777799   -1.96517572747100
H         3.21242547640871    5.39607416262510   -2.97708851079117
C         3.13226067206993    4.87134767766657   -0.90728397459372
H         3.18656935150144    3.80823220592982   -1.09046765758827
C         1.85144530209575    4.77019518841553    6.92077936828343
C         4.21017366075343    5.54921464140223    5.72056713208858

