35
CSD_code = QAGCOQ | q = -1 | S = 0 | Stoichiometry = C4H16CoN4O6S4(1-) | MND = 6
Co        2.82241327392352    2.04647652366749    4.81162209877592
S         1.14889844507132    1.92691830716073    6.50515420904760
S        -0.19012799985180    0.62151854564991    5.66807883089973
O        -1.24338148055961    0.46301126536736    6.64352564761787
O        -0.65042691479182    1.24727650809650    4.41173950955573
O         0.55346826865729   -0.62751100231073    5.40706167637379
N         4.11935319870390    1.83290198149513    6.23290909363451
H         5.06232395862916    2.16742718721912    5.88317839369483
H         3.89580399896179    2.39301516576926    7.05338344810577
C         4.18365985978734    0.42406299921976    6.63385337699512
H         5.10638034274573    0.20329915220770    7.18138801173799
H         3.31936701845472    0.19983732134157    7.26525151222518
C         4.08969172397030   -0.38928913664082    5.35073635798845
H         3.99374761799812   -1.46009913133220    5.56046596420772
H         4.98619926613265   -0.21248096690662    4.74981760055217
N         2.92659117690177    0.12358643349467    4.62045128375635
H         2.02640199412148   -0.29114987680742    4.99167276001759
H         3.00165117641546   -0.16581593078504    3.64701134129472
S         4.49567615861629    2.16614640683097    3.11783414105691
S         5.83501749360178    3.47145969087060    3.95453453517246
O         6.88828334716332    3.62977744627758    2.97904553000330
O         6.29532522123038    2.84593410442214    5.21100422990140
O         5.09144206627643    4.72055584139053    4.21535266953616
N         1.52575655591422    2.26007723898008    3.39000314326315
H         0.58272479740482    1.92552680473184    3.73962177241036
H         1.74942509376879    1.70002653859576    2.56951331520853
C         1.46134493843268    3.66894970243201    2.98912063052956
H         0.53858689964578    3.88970520409836    2.44164157587588
H         2.32559569426274    3.89327962713575    2.35770283542565
C         1.55529611624124    4.48225177225586    4.27226691669062
H         1.65113009756466    5.55308888098662    4.06261036862196
H         0.65884154253266    4.30532149229789    4.87323363521319
N         2.71848684873252    3.96939884586059    5.00240566350527
H         3.61863720709456    4.38407988407203    4.63099477412541
H         2.64361499624586    4.25893517285502    5.97581314697932

