88
CSD_code = QAGDAF | q = 0 | S = 0 | Stoichiometry = C35H50O2Zr | MND = 8
Zr        3.83662840164825   11.96194463307995    8.72997864321209
O         3.79015905722746   10.45332007369498    9.90210556999424
O         2.23995895103685   12.27191484099504    7.79497807119818
C         5.21165789264810   11.15874542494682    7.16543406414652
H         6.29940241866872   11.21449974334774    7.29206047159419
C         4.64826201153437   11.78625649924569    5.97204619612960
H         5.27576343675810   12.48740460205615    5.42706136439451
C         3.44798231840095   11.45275188326845    5.46075319262434
H         3.09204947795872   11.91565076993678    4.55043790185961
C         2.51080308311458   10.49641917159609    6.15188465351810
H         1.88679565694843    9.97167805869901    5.41898558630693
C         3.34170808450365    9.53976866044778    6.94641838417157
C         3.01387942673150    8.19079404334627    7.38005692167128
C         3.94470834428090    7.78187381932534    8.25918142106625
H         3.97882390080450    6.82927550742950    8.75150853357017
C         4.99556376604018    8.84559135361430    8.47532856249316
C         4.54905819821085    9.90516706650811    7.47969279875381
C         4.49655637943031   13.44299324138158   10.59409157433234
C         5.55623394211186   13.61237948579442    9.66306023589166
C         5.01536214061111   14.22390778874354    8.49490586736326
C         3.63582755590788   14.45609564460998    8.70853591177491
C         3.30464111592595   13.94071618488358    9.99132515587214
C         4.56017292759245   12.97590875095393   12.02493991082122
H         4.11525124755425   13.72733636279083   12.68135479503041
H         5.58759390727761   12.82023200839781   12.35067624084580
H         4.00536699269620   12.04271564462935   12.16128883224434
C         7.03743998695422   13.45197220687540    9.89929723367736
H         7.53947083173205   14.41080013655438    9.75230886646228
H         7.49174009239453   12.73535396350251    9.20879722480011
H         7.24743507842296   13.12472838202342   10.91608033010752
C         5.84437368899111   14.74409511583279    7.35164572402278
H         6.26051833615774   15.72493578311827    7.59874854926036
H         5.24500206087873   14.85767907843503    6.44965150400640
H         6.67900173607577   14.07708812721702    7.13281576607352
C         2.70602241959169   15.19891840093175    7.79080980724756
H         2.62327450061975   16.24594799440138    8.09443788356506
H         1.71130497904906   14.75574398616208    7.80864541660864
H         3.06881819169102   15.17015450692795    6.76443234382958
C         1.90493771051768    7.34709375406863    6.81419997838807
H         1.18416491131399    7.99416408537070    6.30401549842731
C         2.49321626634381    6.39451947765012    5.76728957503147
H         3.01460066658099    6.95722121956261    4.99634420793643
H         1.70530246365177    5.80755006847720    5.29924703789204
H         3.20164132737073    5.71420691059567    6.23404575782257
C         1.17262586019601    6.55867083541533    7.89996260972836
H         0.81254433498883    7.22459226400949    8.68073388424558
H         1.83759378704996    5.82913993259296    8.35428230138842
H         0.32293076794272    6.02762076807940    7.47465241024619
C         6.39965458562659    8.31247568181759    8.09584786093095
H         7.10733348352879    9.14942789983025    8.11385028779569
C         6.37204122771646    7.79043097760134    6.65524673309809
H         7.37277651769968    7.49130259903001    6.34915655880784
H         6.01426912552993    8.55731343482825    5.97359440548732
H         5.71370285458314    6.93018834408145    6.57413109359361
C         6.93379700970113    7.21191150224579    9.01000438586814
H         7.91200955402156    6.89033149646303    8.65535739527588
H         6.27434605657062    6.34839908205252    8.99690302145304
H         7.04320107379562    7.55444777732560   10.03351574200359
C         4.80512066980860    9.48574145070878    9.92075275873172
C         4.41893067826021    8.42550278094506   10.98219899750356
H         4.93033648614734    7.48304171416280   10.80306106854622
H         3.34256504191686    8.26061371744554   10.95962731314430
C         4.89465857033152    9.03434976445957   12.29543510663835
H         4.21392069655250    9.83246981947473   12.59385931294132
H         4.94948401918035    8.30366959754161   13.10209723895929
C         6.26024978973163    9.61287418803560   11.93309010146905
H         7.00981842039551    8.81896114206923   11.95840987695330
H         6.57773393080787   10.38980828894117   12.62846994549767
C         6.09498514014794   10.14637560105435   10.50170226025883
H         6.98792547502460    9.94982122385971    9.91394139852702
H         5.91372595058598   11.22254061186424   10.50986110000859
C         1.53536987719281   11.29473713192797    7.12124079255992
C         0.84121850763959   10.39361212254045    8.17050021527562
H         0.55131884558148    9.43685625028547    7.74195838958216
H         1.51433022603672   10.23839077875937    9.02630367964809
C        -0.40851389370939   11.19885669508335    8.51684987154710
H        -1.14789476296156   10.62272158171658    9.07335567701708
H        -0.12217235795929   12.07390408715235    9.10453741181789
C        -0.91631341369284   11.63537031998991    7.14246084298909
H        -1.58961498859110   12.49011442716054    7.20005815248261
H        -1.45699581047720   10.80976647693873    6.67572255892272
C         0.35653420312875   11.94982595252155    6.34391619043478
H         0.54318601567402   13.02329201409192    6.29899864326513
H         0.29024844317543   11.57567673016709    5.32300211100459
C         1.95050664190243   13.92073667594166   10.65295337559502
H         1.92759705535992   14.58626504758350   11.52096922471888
H         1.70540376179741   12.90697385947168   10.99676653602999
H         1.18023465808771   14.25076289134089    9.95705759204139

