55
CSD_code = QAGDUX | q = 0 | S = 0 | Stoichiometry = C20H26N6PtS2 | MND = 4
Pt       -1.96456099655152    4.36914611652647   13.38120340210722
S        -0.26063515486794    4.64968115542837   11.83533583823482
S        -2.74189977057244    6.42694583280478   14.12526036516268
N        -1.65052086499064    2.45070980434674   13.07283751099322
N        -0.76400282579610    2.00254395491476   12.19705327294801
N         0.83928026475159    2.52156414821056   10.66919141378605
N        -3.32130579712976    3.66309912362318   14.59992584526451
N        -4.10551457595483    4.41951914093545   15.35194044842703
N        -4.72178976031261    6.54361510145015   15.89993519848534
C        -3.60385007173285   -0.52718490179689   13.84237512898632
H        -4.54024899770885   -0.00439401401438   13.96673583442842
C        -3.59201504450137   -1.90721925495563   13.78342543108278
H        -4.51794515740978   -2.45519994203491   13.88029283549528
C        -2.41798053051754    0.19804477124911   13.71025151014241
C        -2.40000214276777   -2.58849251561713   13.59803956476967
H        -2.39357117524075   -3.66744755536263   13.55284183238322
C        -1.21759878189789   -1.87833495416910   13.47087345788753
H        -0.28439703015051   -2.40445728845876   13.33150253316218
C        -1.22303926364383   -0.49779645686877   13.52441287802970
H        -0.29943471546303    0.05165884584360   13.43670844918643
C        -2.44060049672906    1.66049720130497   13.77315030196755
C        -0.07517071392194    2.92959081087984   11.55594358974067
C         0.92124005161505    1.13759388801331   10.25525500575797
H         0.34895212539447    0.53191598044293   10.95633309595322
H         1.97356277020653    0.83406172035031   10.28132250858604
C         0.37279485435704    0.99020619333916    8.83462136403452
H        -0.68684690509200    1.25195048232016    8.83920546973566
H         0.46648551113598   -0.04849697407557    8.51549899321718
C         1.12708397308820    1.91503982311773    7.88252688622927
H         0.69831973889405    1.85167460886484    6.88107065815803
H         2.17181665388317    1.60017565602342    7.82106174879470
C         1.05920965024636    3.35235284707942    8.39240662323981
H         1.64771986007358    4.01395034158369    7.75622318173650
H         0.02474987689617    3.69995786434800    8.38279785756179
C         1.58888819772195    3.42008735984294    9.82568147313828
H         2.63934809644324    3.10887689065688    9.84798516212014
H         1.51068265513800    4.43250546022626   10.22031979143148
C        -3.36034934446655    2.36081565563850   14.63164216292517
H        -4.03808741371255    1.84366790045710   15.29862894236316
C        -3.93071803111953    5.72324859592440   15.20420648373941
C        -4.56387177146942    7.97698396426210   15.93192301118669
H        -3.88303420507242    8.28149933096861   15.13779442338506
H        -5.54480574354131    8.43225053287503   15.75421418471919
C        -4.03240484641077    8.40941322552369   17.29944123060849
H        -3.94199174893934    9.49567080215782   17.32589460181505
H        -3.03933402106742    7.98020529995302   17.44345554208432
C        -4.97069323944318    7.92111044943393   18.40018353715107
H        -4.56673764982460    8.18110448238791   19.37997419205017
H        -5.94096622437477    8.41298897469190   18.29559423977587
C        -5.15329270088690    6.40920031610858   18.29284093659679
H        -4.19961651050322    5.91007778759355   18.47342927201523
H        -5.87040511771554    6.05596912459960   19.03481299776922
C        -5.64593126409107    6.04059737150649   16.89256321729597
H        -6.62501141224928    6.49802432685173   16.71148004493247
H        -5.72175226200490    4.96073059269264   16.77387451721966

