57
CSD_code = QAGFAF | q = 0 | S = 0 | Stoichiometry = C20H27ClN6S2Zn | MND = 5
Zn        3.77206507856298    5.86134794005020    1.93083642368723
Cl        2.32506833745897    6.80598354450908    0.44572000272495
S         3.94937453310557    6.61922424238984    4.23254006621833
S         5.89264349958150    6.18658043124886    0.42819363926498
N         2.92124290580442    4.19105501211255    2.86366893741264
N         2.65652909275017    4.22258525078357    4.14702973476956
N         2.67596656040527    5.29800880657034    6.13023669128262
N         3.84895351212797    4.20928291274674    0.46669544944657
N         4.22071909521904    4.55563396353638   -0.76653734164329
N         5.20749950661153    6.17248879282094   -2.12796338261414
C         1.78611630759566    2.02748429099115    2.55083832917488
C         2.04942243528467    1.43432588532554    3.78470659604358
C         1.30829503328770    0.34887339864102    4.21192318814122
C         0.29297195941223   -0.15933519446743    3.41891625165834
C         0.02240828887929    0.42495780935183    2.19256141973917
C         0.76287872823577    1.50816338265206    1.75853405248586
C         2.56653396259260    3.18801846457615    2.10109760393362
C         3.03911919302888    5.29084769775970    4.83972881831158
C         2.01258841150547    4.16439643837354    6.73757935730577
C         2.99183415884176    3.42333978848095    7.64937808031821
C         3.54413134598465    4.38014259753869    8.70323464923073
C         4.16830723079226    5.59752786118918    8.02519459812711
C         3.14826467671334    6.25910641337140    7.09628590387717
C         2.96981017567101    3.31619041658646    0.73120144058593
C         5.03264457407134    5.64394491504765   -0.91031160309298
C         4.30093978401942    5.94731994299952   -3.24079977832358
C         3.17375153015779    6.98148819962219   -3.18783382902730
C         3.77660332164683    8.38104883032494   -3.28489093971602
C         4.81748390482215    8.57047196524260   -2.18444163689672
C         5.86777074842961    7.46126960991522   -2.25528893476167
H         2.84678675043961    1.82289113244284    4.39763239515860
H         1.52469575221768   -0.10379962524160    5.16861617027894
H        -0.28746382905755   -1.00560787755610    3.75526284291579
H        -0.77279297782873    0.03701142229011    1.57271965381281
H         0.52435162846613    1.97303080796440    0.81321594668443
H         2.52966892824427    2.67650268502253   -0.03264337123192
H         3.64956933053105    4.24081377916093   -1.54911718819650
H         1.17056404882918    4.54139442505238    7.32802241373140
H         1.63761862597682    3.51445862627502    5.94818466063414
H         3.81123113930429    3.03227655401444    7.04347670211977
H         2.48389459570308    2.58241765244574    8.12326579920318
H         4.28800037419161    3.87180583796908    9.31904771801157
H         2.73214380366945    4.70553627969630    9.35819939019377
H         5.03284104867914    5.28970972048666    7.43460781360056
H         4.50330130469400    6.32047731400205    8.76942155459396
H         3.59248652145101    7.10568744756100    6.57392698311075
H         2.28812510719857    6.60856650681046    7.67794689587814
H         4.88379612988529    6.07714636256097   -4.15827825195428
H         3.91209010570067    4.92818235192401   -3.24813246196483
H         2.47190431189194    6.80599992525709   -4.00405736810832
H         2.64069219904409    6.88603724570074   -2.23856076536912
H         4.24534595381632    8.51326054544270   -4.26425676430459
H         2.98991838794784    9.12839464041342   -3.18246909937059
H         4.32558898354177    8.52205497411984   -1.21158979815204
H         5.30475396915119    9.54088001560599   -2.27727563164190
H         6.59878649890152    7.56399435094376   -1.45493670802696
H         6.38466341481026    7.47860328934864   -3.21856331925489

