56
CSD_code = QAGFOU | q = 0 | S = 0 | Stoichiometry = C19H32N4Ti | MND = 8
Ti        8.87642793053929    3.41517263714116    2.35128234925456
N         8.06158331974425    1.89256986150356    1.31913185429556
N         8.78642921647450    2.57942134357727    4.04741203338630
N        10.67043397823659    3.39765984913504    2.03001217912922
N         8.56676090766822    5.17023198531918    2.77671246341767
C         8.12105956859083    2.75973356084289    0.26094736846463
H         8.84563182258191    2.60788080744371   -0.53516087561829
C         7.05456145910880    3.65210199650156    0.29653290400359
H         6.79904429163508    4.38949104522530   -0.44970804136828
C         6.31770111640585    3.34056279684336    1.45750182770300
H         5.39554651969578    3.80944402175834    1.76154757615621
C         6.96606401860535    2.26101518783085    2.05854172960874
C         9.77737204548885    2.40405765283071    4.96980540119434
H        10.58293538831839    3.12190390125569    5.04804277323546
C         9.53189816703938    1.27702218544612    5.70993206087222
H        10.12615996165563    0.88850307053525    6.51562693070162
C         8.33103222024787    0.71989477433264    5.21210461634147
H         7.86123024072532   -0.17789910468468    5.56747638687039
C         7.90134325482698    1.53820951398486    4.19352696280050
C         6.65054563443446    1.50921965317354    3.33937664717134
C         6.29570906241847    0.05075069677235    2.98130091750968
H         7.16443207624120   -0.37370688012100    2.47036309089144
H         6.13501612912406   -0.52025080373300    3.89611872782194
C         5.07532191217882   -0.08305778501126    2.07313071778095
H         5.20780830240379    0.55621025780624    1.19708090887428
H         4.17848492968936    0.24820403392480    2.60001851314733
C         4.87876719997109   -1.52564381550441    1.62250191724348
H         5.74591692944626   -1.87149642529937    1.06448647361026
H         4.00225682690061   -1.61280387122596    0.98402189867021
H         4.74322528866951   -2.17881100274403    2.48223446163009
C         5.51705384217462    2.24576242530959    4.09058742340168
H         5.86824194209648    3.26597197288865    4.28837351050366
H         4.63943661417906    2.30994517698329    3.44405741076632
C         5.10901011393463    1.60949997558446    5.41658406490897
H         4.66879161431788    0.62724271510737    5.23803496058158
H         5.99444292282273    1.47717502491288    6.04010328127916
C         4.09692454306838    2.48025371918454    6.15284467278592
H         4.52277087575127    3.45724252894923    6.37195836481148
H         3.80435058618287    2.01660470407797    7.09208059967705
H         3.20248948632841    2.62463521757472    5.54958314846531
C        11.28926829919877    2.11292628195560    1.79695918680647
H        11.95452471719498    2.15065351810136    0.91732416240036
H        10.52068300926312    1.34903455199286    1.63002505239772
H        11.90197303268155    1.80679326991931    2.66227830924278
C        11.65839990590303    4.42039851851944    2.26473659386118
H        12.32447644817018    4.14294224213956    3.09911368632171
H        11.16689588743448    5.36346048779755    2.51295543691809
H        12.29368081356167    4.56902405331504    1.37491290320934
C         8.55171357696615    6.13999731886975    1.70956360137539
H         7.51829191391683    6.39163233937924    1.40436865747061
H         9.09481114614266    5.74814430251629    0.83949481768162
H         9.03339748133819    7.08208531151198    2.02374028899202
C         7.90301405507607    5.67227971458339    3.95433549343386
H         8.37130483383013    6.60888641965137    4.29985904226391
H         7.97014408977632    4.93402322993313    4.75941709612778
H         6.83800852961555    5.89379383437333    3.75310545952115

