84
CSD_code = QAGGUA | q = 0 | S = 0 | Stoichiometry = C27H51Cl2NP2Pt | MND = 4
Pt        0.51798684114712    0.07262082432924    0.30691978399822
P         0.55586016688753    2.20597679662256    1.09592799703877
P         1.89865108738281    0.34272289898522   -1.48273989758588
Cl       -0.83567780061354   -0.37373651550038    2.12089866711987
Cl        0.42176083575348   -2.14183197222813   -0.33430573769021
N         1.68991981280291    3.05730492185026   -1.23656946590188
C         1.82087763900661    4.26273713414295   -2.03597994838507
H         1.02604182147943    4.95813210945641   -1.76905235237011
H         1.70585763358516    4.00933496179432   -3.08919436662120
H         2.78947285384128    4.76586543273368   -1.89897911398196
C         2.65272749538031    2.03712488259883   -1.61782163386822
H         3.56135589544216    2.08833043388676   -0.99522803890713
H         2.94976202378616    2.19138492877422   -2.65876595412538
C         1.71861482517150    3.33749635163503    0.18952507526749
H         1.39184323787880    4.36637962995229    0.36329669095742
H         2.73583593142546    3.23065838026340    0.60148045249074
C         1.16958449386536    0.13602186452533   -3.17531622728833
H         1.82708688893856    0.64475128527732   -3.89467567795031
C        -0.18948479309038    0.83581368268188   -3.13701119453509
H        -0.79195275122834    0.35744812724193   -2.35669238528644
H        -0.05111180484433    1.88418289271352   -2.86347835337437
C        -0.91171542521695    0.72805042227523   -4.47499122710499
H        -1.88829839272829    1.21128419875256   -4.40564131228931
H        -0.33521516184971    1.24777634320844   -5.24546694482608
C        -1.07676316988293   -0.73638354111766   -4.86651213563338
H        -1.58155147755616   -0.81207356015704   -5.83192589748041
H        -1.69361140175422   -1.24189129394409   -4.12160822462445
C         0.28610962515042   -1.41667352578885   -4.93414144965565
H         0.89262263223249   -0.93732208692688   -5.70835747621711
H         0.16498761655910   -2.46632285184964   -5.20746416782221
C         1.00407587711823   -1.32426922449143   -3.58959599307077
H         0.42747321604250   -1.84952449888902   -2.82675035658705
H         1.97889205465289   -1.80959189748989   -3.66877125291805
C         3.36197080107390   -0.78154977711110   -1.39518663629738
H         2.94906108711440   -1.78279699144211   -1.56660659904956
C         4.46319241287303   -0.50163676885856   -2.41476258353213
H         4.06230096262107   -0.53081672538747   -3.43020971873730
H         4.88792254580692    0.49091885178049   -2.24699544669354
C         5.56912553476850   -1.54564796856801   -2.26451553236880
H         5.16110851580285   -2.53596811798199   -2.47682322832382
H         6.36449327495708   -1.34800044440086   -2.98665742817070
C         6.13582754153311   -1.52636461942161   -0.84741813211491
H         6.91421931192077   -2.28551213126919   -0.75098966619938
H         6.59425755517793   -0.55303735733373   -0.65415939581297
C         5.03319407251330   -1.78152064077883    0.17715605134006
H         5.44593267551005   -1.74031955080510    1.18704279454461
H         4.61883672263728   -2.77956060854045    0.02434357111890
C         3.91877823272838   -0.75113572913848    0.02857792526530
H         3.10608262470282   -0.97228141668624    0.73064942006405
H         4.30919351580489    0.24375686677584    0.26128812003517
C         1.12502012332894    2.30786653947255    2.85027270159860
H         0.30602917078564    1.86671431194224    3.43061166218633
C         1.41282765860766    3.71704981929647    3.36211569920940
H         0.53724435117825    4.35774796639185    3.23674890679394
H         2.23913387709311    4.15956588020099    2.80081103803888
C         1.79881427169876    3.64811712791805    4.83919578287938
H         2.01145978363309    4.65207908030226    5.21331834071526
H         0.96069853051225    3.24652724315434    5.41238045547564
C         3.01874846312730    2.75125686081165    5.03240249004297
H         3.27439438114178    2.69936826758064    6.09233107684149
H         3.87279106149573    3.18369484754823    4.50470703442269
C         2.74699939845495    1.34818520188133    4.49542099814272
H         1.93630922388639    0.89131134692495    5.06571955818714
H         3.63502723946364    0.72463399590387    4.61585028594296
C         2.34866691474947    1.40780860762597    3.02447848306727
H         3.18681571975826    1.78988324053370    2.43465109063089
H         2.10376529337212    0.40344114631856    2.66032093464638
C        -1.03431085733825    3.15358581348642    0.98906502619032
H        -0.79829881648378    4.22706564700243    1.00032987627293
C        -2.00457764552008    2.83809522223124    2.12537944743291
H        -1.58768415477475    3.16073142140770    3.08160604253161
H        -2.16172547658132    1.75932250800839    2.17211914064610
C        -3.33907840093901    3.54392650588017    1.89570930358599
H        -4.02281034825355    3.29800013667181    2.71007345376704
H        -3.18755023593105    4.62748684722588    1.90195062380367
C        -3.94750068228608    3.12655876025284    0.56142365710386
H        -4.90433644462343    3.63099356170895    0.41147206750590
H        -4.12988015382300    2.05065713379742    0.57127692942665
C        -2.99168819865782    3.46576366876896   -0.57711625827665
H        -3.41635693463250    3.14960374372053   -1.53193857119449
H        -2.84471871257699    4.54870449912410   -0.61842285790152
C        -1.65026478498583    2.77608863247507   -0.35907366022748
H        -1.79267557356775    1.68880812479258   -0.37020803433898
H        -0.95440375552925    3.03525188346879   -1.15992812092848

