49
CSD_code = QAGVEB | q = 0 | S = 0 | Stoichiometry = C25H19BrNNiOP | MND = 4
Ni        0.73542509402007    1.58801084332204    8.07443869879781
Br        0.42046848984933    3.49981081443424    9.19695164650522
P         2.36492911478988    1.24462422104665    9.36086557469254
N         1.17625580724766   -0.11018998948433    7.20069410696322
O        -0.60932260806516    2.00209437475760    6.85132334144148
C         2.34148123918539    1.26037085162978   11.16874633454185
C         2.10829319501063   -0.95734843328587    7.81409629351321
C        -0.29298963449092    0.23122017061404    5.28512622083833
C         2.84727284787648   -0.44402258762747    8.89174097433731
C         3.81886498975402   -1.19918113654681    9.52738267109991
H         4.37776970328269   -0.76951474464270   10.34614960356705
C         2.32238784602203   -2.29117625157978    7.45440774252252
H         1.72468326929337   -2.76496797273283    6.69029810278722
C        -0.95895794411196    1.39809011758789    5.79096435175241
C         0.72411037637107   -0.41441967533941    6.00931608096369
H         1.16480597169243   -1.27159496870812    5.49962922786288
C         4.05097493418894   -2.50091543458783    9.12196480864324
H         4.80457930424166   -3.09756892508773    9.61238087637133
C        -2.40847102333374    1.34960383215338    3.84165824037884
H        -3.22967789037258    1.76783103606444    3.27767561576242
C        -0.69440323037465   -0.30962860809686    4.04125994915606
H        -0.16894012975608   -1.17765370850050    3.66590497149135
C        -2.04674101477574    1.91271670352457    5.02892627189903
H        -2.55423451568158    2.77878276055698    5.42542464455620
C         3.28473446198119   -3.04252177988572    8.10153900117195
H         3.43239591838824   -4.07122344040101    7.80790517576432
C        -1.72622852595844    0.23027389369300    3.33240326227151
H        -2.02605563453183   -0.19613309228915    2.38750630288759
C         3.81787122558397    2.23081561116472    8.89472865306206
C         3.74617710172525    2.95434948160882    7.70906485469848
H         2.81342782297420    2.96321349583188    7.14607347857910
C         2.58121407175449    2.45730228467345   11.83969808658392
H         2.80065561423432    3.35266311276012   11.27572830046458
C         4.99369869093813    2.22326357139359    9.63666482689787
H         5.04552225222544    1.67121392008587   10.56450693481514
C         1.99272455259444    0.11812200107132   11.88331100060869
H         1.77334162698669   -0.80210880880684   11.35831079118472
C         4.84164896296283    3.67196765671017    7.26713127904846
H         4.78202556154298    4.24001822136350    6.35097139247997
C         6.01251971118331    3.66330081499548    8.00762409913911
H         6.86952422197400    4.22467175748300    7.66650637261635
C         2.51217067779823    2.49402634773506   13.21956440501061
H         2.69874617862223    3.42136547227454   13.73942917605560
C         1.92733631161426    0.16481536951570   13.26375078015409
H         1.66251641022161   -0.72356159731976   13.81828342532073
C         2.19218628504725    1.34916423354835   13.93223749449096
H         2.13645941579130    1.38161768539235   15.01010870804466
C         6.08674291811313    2.94189727253794    9.18896419425169
H         7.00027997436479    2.94241322537384    9.76526165396237

