73
CSD_code = QAGVOL | q = 0 | S = 0 | Stoichiometry = C30H26N8O6S2Zn | MND = 6
Zn       -0.00074032068660    0.00007248943804   -0.00001947109421
S        -0.96779725866712   -2.84121108943327    6.84855295789077
N         1.55475915868049   -2.74874890170368    6.43515245935738
N         1.43741335746218   -3.24630114898806    7.64264796554186
C         0.44773868834275   -2.46801238463943    5.84228474683091
N         0.15866128958780   -0.84459271997287    1.96195555002832
N        -0.05623690361140   -3.87456515860963    9.26827767841444
H         0.79307574959574   -4.11234245810361    9.76735929134733
C         1.48465810553292   -1.62882510022863    3.77443387420284
H         2.45542777755903   -1.82679460257924    4.19839711095514
C         0.33479050548621   -1.91334208804423    4.51712324151386
C         0.20109029372122   -3.37415328251890    8.04534958795465
C        -1.11648881745660   -4.66662792403420   11.23985102194629
H        -0.13269713689883   -4.87504823005749   11.63667964600998
C        -0.90328343018626   -1.64237073175523    3.93293619639450
H        -1.82009495545070   -1.84430577990373    4.46664980799727
O         1.68958683124568    1.00181029144494    0.29173187007383
C        -3.50168132539019   -4.67323745375226   11.48820156487199
H        -4.37982259213224   -4.88614792560355   12.07771725853306
C        -0.93910987983414   -1.11145608707011    2.65729319819979
H        -1.86961938713698   -0.89368307876116    2.15361551483740
C        -3.62571968139690   -4.13216849603963   10.22110791162845
H        -4.60391136343080   -3.92045484542063    9.81643867066929
C        -2.23897047938681   -4.93949846571565   11.99411678206462
H        -2.12784773142134   -5.36193698340359   12.98138531835733
C         1.34305017200852   -1.09613228135856    2.50790406436221
H         2.19585953266754   -0.84546054073328    1.89375990193542
C        -2.50663578892301   -3.85481014416620    9.45632057461331
H        -2.63388145822566   -3.43328102696762    8.47327868500927
C        -1.23689887603174   -4.12009165576329    9.95998139505111
O         1.40211511881522    2.23742447935679    0.85939223079537
C         0.15298202605686    2.50098585764604    1.08377285276102
C        -0.02045700051146    3.86463964730334    1.70387436788794
H         0.94111682274585    4.36155226135470    1.78514170633467
H        -0.46625023981497    3.75168094440400    2.68936075806532
H        -0.69852845600504    4.45175348989198    1.08965958518036
O        -0.79074905977140    1.75924751240177    0.83782861572117
S         0.96791861723206    2.84317520090928   -6.84764822890547
N        -1.55478196637795    2.74787138780906   -6.43590858931416
N        -1.43719858753574    3.24597357252467   -7.64317142970785
C        -0.44778137428078    2.46812528267191   -5.84249307881974
N        -0.15982132060452    0.84430898415827   -1.96229659335830
N         0.05682305649248    3.87663647464886   -9.26754184957969
H        -0.79240530856622    4.11412804311359   -9.76690235474125
C        -1.48535635512399    1.62480592295835   -3.77670717164645
H        -2.45596564146838    1.81995771031885   -4.20229887459138
C        -0.33514888050523    1.91313583112358   -4.51743236953675
C        -0.20078680728105    3.37520306157206   -8.04508742027225
C         1.11766302083243    4.66659190798881  -11.23965937230082
H         0.13400844217100    4.87493220971093  -11.63685172167656
C         0.90281621978006    1.64576823268768   -3.93141250068886
H         1.81987376461092    1.85072812429932   -4.46356203656397
O        -1.69021850645768   -1.00230007180500   -0.29143237151051
C         3.50290805595151    4.67232090105425  -11.48754584298353
H         4.38123037314555    4.88455879367483  -12.07702548623207
C         0.93821702303193    1.11461329447058   -2.65583721945364
H         1.86856118912206    0.89949141527395   -2.15069769066451
C         3.62653996631145    4.13212754092753  -10.22003898225151
H         4.60458638249091    3.92043544792339   -9.81500295253004
C         2.24037757749795    4.93855479743944  -11.99391186577106
H         2.12956360571433    5.36019917017097  -12.98156004287934
C        -1.34415142164241    1.09227290036655   -2.51009657344203
H        -2.19712287976396    0.83876287033079   -1.89735703757965
C         2.50723075822413    3.85574178066743   -9.45524269648336
H         2.63418929448651    3.43494541816125   -8.47184707889700
C         1.23766551641250    4.12103330011733   -9.95934029326279
O        -1.40261143280584   -2.23787488734091   -0.85915923971724
C        -0.15348268654415   -2.50116090139441   -1.08407084155734
C         0.01984898291906   -3.86464342045061   -1.70464012662217
H        -0.94118725640393   -4.36335291172703   -1.78172800522023
H         0.46101578554313   -3.75094022063422   -2.69219795276869
H         0.70184032144568   -4.45031698277043   -1.09336133733702
O         0.79023918548146   -1.75937656858042   -0.83844726382854

