63
CSD_code = QAGVIE | q = 0 | S = 0 | Stoichiometry = C30H22N4O4S2Zn | MND = 4
Zn        3.27772247941287    5.34296206921135    3.95702587351953
S         4.23213737304912    2.83252843287267    4.16578959461997
S         4.96077467309130    7.26926793687052    3.10467409307487
O         4.91840087223672    4.00749434800326    4.70372812013119
O         3.97365792917727    1.79118904786766    5.12308161413562
O         4.80341721544804    5.97912839597681    2.43311132671133
O         4.74941325999368    8.41824925066799    2.26626262298626
N         1.91036590283724    5.58379508548463    2.34411912650523
N         2.88894194862209    3.47605988710687    3.56066444586887
N         2.79064677121359    5.51481803729764    6.02132413099268
N         3.89087898549667    7.15887785029153    4.29940400302655
C         1.45017609343456    6.67378853331686    1.77940491693111
H         1.59422441413972    7.59577845468799    2.32399334808421
C         0.81195990583449    6.66345657896389    0.53084850428641
H         0.44281115966026    7.58800632366051    0.11546416783436
C         0.68168832860269    5.47905367037493   -0.14523753229430
H         0.20350575064158    5.43675996948688   -1.11378818585747
C         1.19310808056453    4.29346147703609    0.42263785355931
C         1.16062821677898    3.03610058924512   -0.21020323464662
H         0.69846611414427    2.94793250382190   -1.18161337869450
C         1.72442308787325    1.94700813499522    0.40553644198788
H         1.70533905517886    0.98540627495722   -0.08685642065127
C         2.32437881265936    2.04172224311060    1.66292070231326
H         2.75397236599905    1.16721094713377    2.12750261382564
C         2.36370829150119    3.25281697915282    2.33468024286660
C         1.79717756848181    4.40573818025233    1.70011350498335
C         5.21310450126948    2.14593638677187    2.83152875658311
C         5.51686574082502    0.79738099066084    2.85219617677742
H         5.17498940419225    0.20444950388330    3.68615853367617
C         6.24614220929228    0.25084269097280    1.80926633539331
H         6.49064749920860   -0.80078061268461    1.81377932926361
C         6.65681217978107    1.05800438270227    0.75975883205318
H         7.22107640900091    0.63118712652471   -0.05643059878449
C         6.34903730180303    2.40949840499529    0.75350167038853
H         6.67314001360629    3.03504038058815   -0.06432842495914
C         5.62167396463868    2.96360949259114    1.79550315529025
H         5.37781833788720    4.01403254094286    1.81391412615962
C         2.23065630098047    4.65205928399934    6.83425784627936
H         1.73671395502403    3.80813723714089    6.37462958552300
C         2.26983634872212    4.79578456294480    8.22854121611620
H         1.78376288602825    4.06178920794294    8.85189825587846
C         2.93801784387472    5.86024162954935    8.77383303997837
H         2.99583870911312    5.99612277571594    9.84468069115079
C         3.57639068942145    6.78966036214546    7.92628598587562
C         4.33359533180589    7.88541020494729    8.38285421173160
H         4.42411387617257    8.05628285788279    9.44475783775080
C         4.95429126437028    8.71057074934227    7.47893920302795
H         5.54175071863129    9.54535911893680    7.83322344736559
C         4.84655513467146    8.50631294001224    6.10177998086382
H         5.33966396452148    9.17500930060244    5.41265244514794
C         4.09619288580445    7.45381447123740    5.60293261953014
C         3.45588997428307    6.56979985907639    6.53108975546837
C         6.61217061938257    7.36846895616709    3.79574467840813
C         7.06268359014683    6.36565336123964    4.63261546060710
H         6.43298989785062    5.51400708622467    4.83578391554877
C         8.32853181219617    6.47574665509008    5.18697116205607
H         8.69331095437128    5.70164005284546    5.84489975092267
C         9.12188085491652    7.57554008999403    4.89994775779832
H        10.10618517791473    7.65738363852518    5.33719940738924
C         8.65977698034375    8.57059090199487    4.05266188344426
H         9.28129285981161    9.42418064461885    3.82728461075880
C         7.39471646025940    8.46858118397826    3.49808740716345
H         6.99495869181308    9.22224037804216    2.83771145627374

