97
CSD_code = QAGWUQ | q = 0 | S = 0 | Stoichiometry = C36H52FeN6O2 | MND = 6
Fe       -1.31213046312278   -2.49259925218611    9.78023769052467
O        -1.26449834246694   -1.70109143269211    7.87624412224121
N         0.54751690869807   -1.23430334791829   10.22372626816403
N        -3.00511469181300    0.72691756472821    5.06417787555814
N        -0.19475361104779   -4.00570558982767    9.16185564871234
C        -0.52330866470458   -0.75933304622262    7.36890846760605
C         0.75253703841299   -0.41136525120795    7.87387580873445
C         1.47576962341841    0.62223882291294    7.30558627666535
H         2.44522101778684    0.87276891683559    7.71974084482409
C         1.01132667732525    1.33668049621258    6.21071173911247
C        -0.21470600237240    0.96942817414454    5.67824990383911
H        -0.60877896098706    1.48282593040049    4.81309713919917
C        -0.97639527541872   -0.04014994429870    6.23259207596243
C         1.36420687992764   -1.19860304154193    9.00125847548881
H         1.52254125981006   -2.23214455882916    8.67838145207458
H         2.34941974252846   -0.76236638855846    9.23548532146074
C         0.29357720512164    0.13783105948261   10.64905657659349
H        -0.28278489070002    0.65765047163026    9.88672688746550
H         1.23834324087047    0.67985689166409   10.79863256381094
H        -0.26113873696875    0.13827710372322   11.58466814610715
C         1.28831856676702   -1.91053138686488   11.28021200033438
H         1.63011236317567   -2.88068945957702   10.92799020610979
H         0.62493548149641   -2.06262388166240   12.12786486490888
H         2.16230616202297   -1.32364648343598   11.59671575145427
C        -2.28383479121890   -0.42416763219540    5.58704683232055
H        -2.07560039056465   -1.09097207301004    4.74157442685928
H        -2.89341729574326   -0.99175245642807    6.31163839631219
C        -3.47019226456826    1.58746098555569    6.12848223669246
H        -2.62535396314987    1.85683664817340    6.76004570447741
H        -4.24350194759191    1.10469687731564    6.75170129106122
H        -3.89089376778312    2.49575589809631    5.69656735060513
C        -4.09703195527777    0.32595405182827    4.20680071314380
H        -3.70720314252397   -0.26072295853515    3.37576845820739
H        -4.57987195263877    1.21668120272035    3.80499673500567
H        -4.85831304949258   -0.27517419451293    4.73351577182357
C         1.82585067390103    2.45079990235492    5.61997800948825
H         1.30799832530008    2.89749361579852    4.77492756370620
H         2.79260146279837    2.08130015159835    5.27692129497281
H         2.01209551252387    3.22795371287829    6.36177896827234
C         0.01746041603016   -4.21183089514918    7.85708226838380
H        -0.42413514795879   -3.47931556081621    7.19871458289701
C         0.76019211959944   -5.26499676346087    7.35910169437017
H         0.89892637072145   -5.36647672525971    6.29391579655216
C         1.31610676458474   -6.17867638851273    8.24295500272631
H         1.90145285528858   -7.01372548132329    7.88974813567933
C         1.09022496515808   -5.98115001013667    9.59693585421466
H         1.48852411153058   -6.66319863219476   10.33203839975864
C         0.34135559356060   -4.89283595469760   10.00445156007543
H         0.14062481919341   -4.71999293112753   11.04886830469822
O        -1.36046861798578   -3.28416216973066   11.68410348135100
C        -2.10162594170018   -4.22598378303697   12.19132784334205
C        -3.37740549462048   -4.57399456915396   11.68626638299503
C        -4.10061710809990   -5.60764493314569   12.25451024147688
H        -5.07007235018043   -5.85815445731032   11.84036778180758
C        -3.63617732383925   -6.32210923593797   13.34938300990205
C        -2.41015728662663   -5.95485633154137   13.88186492700187
H        -2.01608746122610   -6.46824294043543   14.74702688577790
C        -1.64850072905321   -4.94523586465204   13.32757241265675
C        -0.34103768140309   -4.56122916256331   13.97308442360489
N         0.38026991934836   -5.71230223539738   14.49593498002874
C         0.84535895540239   -6.57283231786486   13.43162617697234
H         0.00051450928346   -6.84222879656510   12.80007765401347
H         1.61866373643232   -6.09005767501857   12.80840335631083
H         1.26607090302041   -7.48111498803140   13.86355417107111
C         1.47218357218225   -5.31130349913366   15.35330371872750
H         1.08235252103220   -4.72463890148776   16.18434434422387
H         1.95503332246422   -6.20201918493236   15.75510850142068
H         2.23346529916485   -4.71016940830868   14.82659469360416
H        -0.54924573581770   -3.89442736525773   14.81855413198029
H         0.26854360002397   -3.99360990765491   13.24852842266621
C        -4.45070376412573   -7.43620115129624   13.94015345189031
H        -3.93262666178359   -7.88318454825323   14.78491517795980
H        -5.41725086847621   -7.06657770155236   14.28365843842295
H        -4.63737511844668   -8.21313388378512   13.19823124321679
C        -3.98895327301922   -3.78672105641235   10.55883028356523
N        -3.17214967550322   -3.75087388024946    9.33642090747317
N        -2.43080216273313   -0.98023797089218   10.39816284541134
C        -2.64262006200298   -0.77381850903079   11.70295701358078
H        -2.20089105694907   -1.50621199475806   12.36136481195236
C        -3.38500463468693    0.27959126278387   12.20094592650787
H        -3.52370383033048    0.38111036208681   13.26613445363481
C        -3.94091325947749    1.19326433984274   11.31708271688927
H        -4.52613040552579    2.02841132619464   11.67028423370436
C        -3.71501855717473    0.99572780379539    9.96310239897489
H        -4.11327360759062    1.67781036160531    9.22800569498418
C        -2.96649514789199   -0.09283690337579    9.55557540043971
H        -2.76557396545852   -0.26559125492129    8.51117668852864
C        -2.91828947657390   -5.12304059309116    8.91108712617388
H        -2.34197319749877   -5.64291829282361    9.67340698456660
H        -3.86305311585263   -5.66507598309952    8.76150277176989
H        -2.36358121849685   -5.12352623150591    7.97547157689274
C        -3.91309493207207   -3.07478853816709    8.27992560890185
H        -4.25494068202769   -2.10465153741308    8.63214656747531
H        -3.24976936179380   -2.92267535692820    7.43223188826887
H        -4.78707984903173   -3.66171789690790    7.96346229705298
H        -4.14733223667822   -2.75319010884670   10.88173835121541
H        -4.97414733603307   -4.22299109171553   10.32453614036089

