65
CSD_code = QAGXEE | q = 0 | S = 0 | Stoichiometry = C24H30N2NiO8 | MND = 6
N        11.57282877894892    7.32766641988842    4.05216065164651
N        11.65719509228776    3.87460716679507    5.03574319214504
Ni       11.21681010655279    5.28741080682932    3.48152225739561
O        12.05601172087116    7.79236436884398    6.94637667579466
O        13.15594617466826    4.97451510335140    7.35589535288669
O        12.91845676768533    5.19084327890049    2.79496356400673
O         9.46757330640004    5.34708704952585    4.04066409552883
O        10.55045788982187    3.42161430980414    2.24063822480585
O        12.53860580239769    3.07959966009815    1.29673575588836
H        12.77469317648831    3.91276178770305    1.83174224390754
O        10.63984466119685    6.16339784249799    1.39753202723989
O         8.46877931069255    6.36975805909707    1.84912318131194
H         8.76166544142614    5.95748247185362    2.73260875581241
C        10.68304219065661    7.94975683984837    4.99831637648960
H         9.65265804094784    7.79212707723756    4.67161386501270
H        10.88769736141374    9.02555397700236    5.09221017512906
C        10.85876146016040    7.30285909826280    6.37435704943661
H        10.00468282052478    7.56430180108395    7.01826473008027
H        10.89233361983264    6.21187765191632    6.25863550182134
C        12.41344346227873    7.18535202989690    8.16866828234961
H        11.54085041733773    6.71182777247472    8.63174449730377
H        12.77252853621032    7.98556457316055    8.82656970483366
C        13.54190947998996    6.14831734687487    8.03750782737553
H        14.40196551434023    6.61354320052343    7.54378495328073
H        13.83593784617178    5.84684261327040    9.05002984408341
C        13.63496885487497    4.88123549921160    6.02861573785799
H        14.73318083155081    4.80178253072679    6.03377754880037
H        13.34790574046861    5.76338311713733    5.44191629692004
C        13.03289852869600    3.63043342224466    5.38430872451487
H        13.59387601356446    3.40839792602988    4.47358528000937
H        13.12340022810568    2.79634787187395    6.09426393762117
C        12.60097103166537    7.97796228581438    3.66368729341471
H        12.73722052578043    9.01026412583624    4.00850666577466
C        13.63340709686093    7.49181202187512    2.79725678999079
C        13.71431261999958    6.13000585222242    2.39045835731519
C        14.77723980021105    5.77419733429988    1.52652016719964
H        14.84346488907016    4.74387289846010    1.20790353931643
C        15.69975865673813    6.69424321866675    1.09900061221946
H        16.49483116477230    6.38405813494641    0.43615494500435
C        15.62022072649228    8.02409312186970    1.51006838182531
H        16.34977709591067    8.74342967846091    1.17132532217750
C        14.60051561410727    8.40261998246235    2.34710868620220
H        14.52395826681216    9.43200010772964    2.67000557463332
C        10.74311846748361    3.30977626920411    5.72595697317934
H        11.03344865581838    2.60860164142884    6.51792573071203
C         9.33047966123207    3.49401502013796    5.57407828862866
C         8.77508066718603    4.48545290813702    4.71672092401293
C         7.36380839479995    4.56470155203269    4.64735700637737
H         6.93285542196565    5.31108561419710    3.99566521475379
C         6.55656459596932    3.72886560552784    5.37540805433387
H         5.48283861042720    3.81763732350934    5.29155101546176
C         7.10777212351393    2.76625052155166    6.21998968131443
H         6.46745617797796    2.11169252170405    6.79096305863624
C         8.47337003957531    2.66301646915814    6.31047487736148
H         8.91448365691683    1.91758477680381    6.95819206080559
C        11.27842429170620    2.79199846709128    1.49945515954758
C        10.80215480181747    1.58698799394916    0.72854800656414
H        11.39341206197639    0.72102923938374    1.01693209132740
H        10.95307670938037    1.75926172374043   -0.33436430654474
H         9.75182466248078    1.40609910526469    0.93368931553408
C         9.51369776027718    6.47963302633953    1.06955512961246
C         9.19716382111982    7.04968815500474   -0.28990107907725
H         8.77092822035182    8.04260241685255   -0.17074379612194
H         8.45661795922067    6.42104197143321   -0.77856244247641
H        10.09983657382276    7.10120624093219   -0.88986361031720

