47
CSD_code = QAHBIK | q = 0 | S = 0 | Stoichiometry = C19H24N3Rh | MND = 6
Rh        1.31576383011149    1.32568141266328    1.96187961892698
N        -1.42282598687674    4.05293116353238   -0.75565287433810
N         2.41443807835288    1.08157389682422    0.35440443235926
N        -0.13386049961123    1.96874896759747    0.42629549208312
H         0.18742427696119    2.94168292186935    0.32765248118367
C         1.75229413921301    1.16657300375175   -0.83825452991532
C         2.64416932654611    1.09018897295853   -1.88148858037025
H         2.40879184923058    1.12460892825270   -2.92890114266873
C         3.91746114180811    0.95230613462763   -1.30054833553899
H         4.85309648307470    0.86500463449707   -1.82003251380074
C         3.73406214096671    0.95236985616377    0.06051289465101
H         4.48466086728240    0.86711403486007    0.82594852410015
C         0.26333062368569    1.28053733105153   -0.81832663882486
H        -0.09874175765178    1.81728373359183   -1.70664796617727
H        -0.20078860712146    0.28403976335322   -0.81137699095072
C        -1.58785400172590    2.04504914617261    0.54928232790958
H        -2.01765599107003    1.04770396023487    0.41853688519484
H        -1.85038821164708    2.39860415150376    1.55319947181213
C        -2.18476330602465    3.01013652945160   -0.44897259783865
C        -3.45085029650951    2.82880893820629   -0.99356121197541
H        -4.04294422386152    1.96728401824210   -0.72434455397966
C        -3.92810894453555    3.77307815391736   -1.88712069579424
H        -4.90660269397322    3.66072506757574   -2.33100308221375
C        -3.12810822199799    4.85933107791326   -2.20674258937931
H        -3.46176442346402    5.61371225620901   -2.90132091183423
C        -1.88024752721810    4.94897536492960   -1.61038897795194
H        -1.21040100979369    5.77162019778070   -1.82330806934392
C         2.52322434490665    0.01346416324331    3.08534294102035
H         3.13756148507344   -0.57928343176432    2.40806618407309
C         2.92067952025696    1.32574208975760    3.34849380782914
H         3.80653369732403    1.69740410393371    2.83658102441863
C         2.60656445539698    2.04391512856607    4.64464863190708
H         2.53752193048603    1.31374140904448    5.45144192290859
H         3.43058308673666    2.71674367326428    4.88916390435641
C         1.30831589973539    2.86533267184975    4.54411584011112
H         0.84113965008750    2.95611800489010    5.53129362389514
H         1.55433084802508    3.87633407121466    4.20976570497604
C         0.31489978018895    2.28084391064729    3.56352026264329
H        -0.38761234995573    3.02617942627038    3.18364140912077
C        -0.07003849457146    0.94363005911894    3.53903272016560
H        -1.03980489767654    0.70135371182287    3.10233905526425
C         0.43033230463199   -0.08234884980283    4.53452087946650
H        -0.35990636384200   -0.81167247294144    4.72445081253493
H         0.64516459182435    0.41131891072867    5.48274873184660
C         1.67681970962347   -0.82564801193354    4.01598968516110
H         2.28965945765519   -1.16715355075983    4.85693613403070
H         1.35704428994587   -1.71468863489489    3.46698685894806

