60
CSD_code = QAHBOQ | q = 0 | S = 0 | Stoichiometry = C26H30N3Rh | MND = 6
Rh        1.11503941477122    2.17903836649811    2.17041381330274
N         4.80258532586613    3.44650975789831    1.22026157481417
N         1.26363396970691    0.23087424509501    2.43839131562554
N         2.39021877523141    1.54491326838450    0.35697399608257
C         1.56604343265282   -0.49176609941325    1.32076165793131
C         1.67872631525687   -1.82584063530105    1.63993122176217
H         1.90560778108049   -2.62851327896977    0.96335863988240
C         1.42274960903554   -1.92386441483130    3.01870016892299
H         1.42233454704830   -2.82036487035551    3.60934985893755
C         1.17522657275621   -0.64776724740555    3.46711393853598
H         0.94729825825067   -0.33026570277873    4.46965954673153
C         1.76020252041077    0.24810177858182    0.03666476602158
H         0.79392119575448    0.45455515791141   -0.44262419478470
H         2.37753016715306   -0.33810391283352   -0.65887569276368
C         3.75398093376782    1.29839019661958    0.86781445326748
H         3.73625665390115    0.36624991607183    1.43790179509424
H         4.46391905985383    1.19435741023657    0.03999251983694
C         4.17883467783638    2.41659544003566    1.77679895024334
C         3.90668284922485    2.35189556278811    3.14642762959519
H         3.45037383565221    1.46889656066353    3.57622716876198
C         4.32377077627743    3.40269661140579    3.94959634713436
H         4.15785455918967    3.37620188961634    5.01711455747671
C         4.96964646666753    4.48142201056721    3.36196929089710
H         5.30870674367026    5.31959796005891    3.95116639613713
C         5.18020794562898    4.45212391392569    1.99356668267629
H         5.68128915837520    5.26608867761296    1.48494807765695
C        -0.70334899550901    2.12521864112823    3.23645678855698
H        -1.00889693597059    1.09213115313383    3.39794790122825
C         0.29779404208094    2.64350511878131    4.06605331448626
H         0.72823683606454    1.96581170705217    4.80271097429686
C         0.38164583799576    4.10661536223561    4.45159137573679
H         0.80166992765353    4.18602261995949    5.45600894651001
H        -0.62865960521221    4.51715438935754    4.49400403920735
C         1.25420392611108    4.92674868539938    3.48122143323086
H         0.85748301193069    5.94450965865017    3.39010697618507
H         2.26237524091967    5.01287212397602    3.88922903761735
C         1.35121545865785    4.30812922643780    2.10390620852432
H         2.26556751628637    4.57493362024683    1.57383380694054
C         0.23722594093419    3.95967670973450    1.35353759001327
H         0.34158068321944    3.92910091180766    0.27001418316449
C        -1.18125579108375    4.19088301543436    1.83207965412037
H        -1.81288794699563    4.43277558780491    0.97464540057054
H        -1.19805162710350    5.05510966682442    2.49730068118091
C        -1.75890332879245    2.95419242769158    2.54346380405919
H        -2.51882458617309    3.25676130976241    3.27210337940027
H        -2.25399379022932    2.31682709506132    1.80666154802651
C         2.42821435042952    2.44770311100131   -0.80898487738309
H         2.83849190841094    3.40218801525459   -0.46792062292532
H         1.39672527031570    2.59850123901280   -1.14084661580347
C         3.25047713600644    1.95835518000273   -1.97558974374220
C         4.57953480792466    2.34938409441353   -2.10464454296550
H         5.00780368344658    3.01914980081718   -1.37199614377434
C         5.34687403405420    1.89137768236858   -3.16129884512811
H         6.37826961260083    2.20012781751759   -3.24918045172215
C         4.79481984505960    1.04209601160549   -4.10520146411872
H         5.39383032805878    0.68327467611678   -4.92910739488069
C         3.46848051321364    0.66183421419899   -3.99424241611333
H         3.02874136616412    0.00846179429043   -4.73359782293755
C         2.70087105758762    1.11919049522905   -2.93737843806708
H         1.66254872692509    0.82735427560289   -2.86759214327261

