60
CSD_code = QAHCEH | q = 0 | S = 0 | Stoichiometry = C26H30IrN3 | MND = 7
Ir        2.38052326470053    3.02525646591919    1.34243995204685
N         0.87134282437387    2.25163970670887   -0.17442995365417
N         1.31674420693121    2.38342596754417    2.94563789537629
N         0.27169000382387    4.38505819823130    1.24321232289600
C         0.05190454731641    2.86683818335108    3.12727666764436
C        -0.40616415384822    2.55813015516338    4.38708038324422
H        -1.36897804152698    2.80708158019190    4.79455416761617
C         0.62758453993820    1.84806830965761    5.01873701660200
H         0.61834109276066    1.44343490546085    6.01338937683800
C         1.65642115652065    1.77238926602899    4.11275889805656
H         2.60804526494073    1.29589081326527    4.25620295961643
C        -0.66329176314767    3.54986608281756    2.01286947933000
H        -1.07750355418583    2.79299754451519    1.33614784984078
H        -1.50906641629554    4.13738868917567    2.39390772039597
C        -0.15135365858370    4.45495745963469   -0.14133105323052
H        -1.21311464840542    4.73463827555974   -0.24680777437630
H         0.43849847996603    5.21254428577729   -0.66884285717719
C         0.07740124734803    3.11842392541898   -0.80618477899000
C        -0.52468259916918    2.81690541564284   -2.02047467822881
H        -1.15938946903987    3.54649587326879   -2.50081303357307
C        -0.30509189933190    1.57602601412029   -2.59505012358933
H        -0.76102202719955    1.31926792914434   -3.53933421425135
C         0.50054952980488    0.66947685690331   -1.92100766105129
H         0.68518741943649   -0.31513771163433   -2.31994438465267
C         1.06153999354636    1.05184191775407   -0.71653576941752
H         1.68910421885222    0.37776349654558   -0.15242389359137
C         4.04896889063687    3.42579680856032    2.56298912837599
H         3.79266575312433    3.49164160056575    3.61819270124112
C         4.14994388648161    2.11062100425368    2.02228154830748
H         3.97321842806840    1.28520779099347    2.70798177270657
C         5.12803335478153    1.72382822446488    0.93289017595013
H         6.14788896652673    1.74765030771562    1.33162992608968
H         4.92055008521596    0.69124179073024    0.64561534665550
C         5.01658088119255    2.62383124640745   -0.30800165963564
H         5.22057555424860    2.03137820974187   -1.20211272832170
H         5.76577684133245    3.41636127556193   -0.26943311601515
C         3.64375839247767    3.25096475374333   -0.43130444192372
H         3.10518806846823    2.95420021638196   -1.32891443943917
C         3.33533898476534    4.49520145694281    0.11269673672344
H         2.60099058286809    5.09695943364987   -0.42007550787908
C         4.30592869255572    5.33257663033585    0.91835030698990
H         3.76067326090609    6.18837414349563    1.32215131220226
H         5.08183902316847    5.73072743126915    0.25409944388280
C         4.94342348673448    4.55615775620608    2.08322582858684
H         5.12724888468530    5.24636556796173    2.90805121493292
H         5.91024881924016    4.14771510210448    1.78504714299337
C         0.48673639930481    5.68836313577936    1.87987133788647
H         1.24725269798165    6.22139950688471    1.30395286183309
H         0.88743942189453    5.47988087483852    2.87437190392580
C        -0.74908305421578    6.54477617728462    2.00113059750659
C        -1.17234748463114    7.34640485455818    0.94748844341083
H        -0.58443148582424    7.39799984908759    0.04122406724612
C        -2.33185277931261    8.09473678622252    1.04988666642076
H        -2.64679252732215    8.71440662689516    0.22259510149244
C        -3.08478311805697    8.05260967691945    2.21080725728921
H        -3.99084876126263    8.63497582490049    2.29019520163964
C        -2.66488432909753    7.26964113610866    3.27261772107618
H        -3.24215119851305    7.24124572657118    4.18513373528980
C        -1.50431660061808    6.52306818270062    3.16895790617515
H        -1.17229757733001    5.92282128399893    4.00407199267036

