52
CSD_code = QAHCAE | q = 0 | S = 0 | Stoichiometry = C21H26BrN3Pd | MND = 4
Pd        1.82538403498426    0.79037279483512    4.00018232696740
Br        1.74882011194893   -1.18682566348135    2.71553482246629
N         2.01200238676677    3.02192585275695    6.20594275197929
N         0.36822995816755    3.09442451628524    4.81579966356219
N        -0.20319995875538    1.46597295415563    3.30171245066738
C         4.26557809104571    1.05828928885826    8.35154553974645
H         4.24352329314949    0.19279214435061    8.99385387680846
C         4.37664862721421    3.29392380202770    6.67948430575314
C         1.52621615012506    2.41940104554955    5.10716029155564
C        -0.47684475492751    2.68203262357931    3.78998944219816
C         4.41379513011323    4.47117668250140    5.73063355207759
H         3.44115497018379    4.97609015508317    5.76293133894690
C         3.18083899288106    2.60342903725310    6.89793694446221
C        -2.02181965053021    1.68700641675108    1.78769250481996
H        -2.61148419658370    1.25715308745172    0.99492373658208
C        -2.30821740365467    2.94836790379732    2.29192274512683
H        -3.12759155378623    3.52884006958099    1.89603077781721
C         3.81245700856914    0.43876609176705    4.38811143424266
H         3.93783213778917   -0.60889905871569    4.68088589645563
H         4.28281071216117    1.07166057379918    5.14144486551034
H         4.31897426570711    0.58416063166617    3.42252474491245
C         1.19738334542921    4.05777282639589    6.59588026378426
H         1.41326910925493    4.65587690219166    7.45775248763303
C         5.46325097973850    1.70923054954797    8.12993744554922
H         6.36540692824951    1.34640664608769    8.59923378373798
C        -0.95586922575801    0.98279768698392    2.32053395586896
H        -0.69111659835357   -0.00492288750558    1.96147830959298
C         5.51828796957517    2.82355268088396    7.31241586768999
H         6.46290115350650    3.31833417317185    7.15713653812754
C         1.77806125225210    0.80299878609692    8.01255775380652
H         0.95966047796886    1.45016913365214    7.67698860927116
C         0.16735276252614    4.11109122510369    5.72525397103986
H        -0.67985046151115    4.76348305661830    5.69933195439158
C         3.09411556708235    1.49961227137949    7.74916114401699
C        -1.52495197862446    3.46154884105232    3.31005797263871
H        -1.71328321819383    4.44430788482718    3.71126214445244
C         1.69401149020307   -0.51231447062588    7.23059244345837
H         1.68564291236700   -0.32005975769085    6.14103528766296
H         0.78172554950718   -1.04387272578277    7.49296965099168
H         2.54590494056065   -1.14774960896133    7.45940994850569
C         4.64125634310388    3.96926918344101    4.29996142909171
H         4.65987458003793    4.80835474312570    3.60798519633030
H         3.84958675265390    3.28258309836033    3.99356939645284
H         5.59050518150736    3.44281791526612    4.23354948179072
C         1.57336967951001    0.54928232869380    9.50877166564828
H         1.74323116955922    1.45947099525206   10.08068253005111
H         2.24783548211776   -0.21991903396150    9.87385369458318
H         0.55443370974950    0.21390284333317    9.68868900134148
C         5.47638326774129    5.50454163185954    6.10513970498862
H         5.33445192747086    6.40567565145035    5.51246283395372
H         6.47700389346663    5.13047900728530    5.90534712403124
H         5.40395670474183    5.76961747261208    7.15805439685444

