66
CSD_code = QAHCOR | q = 0 | S = 0 | Stoichiometry = C21H32NO8PSi2W | MND = 6
W         0.06853539591078    4.10621012069303    3.33634889419016
P         1.57105746764219    2.16323798548704    3.50059593557899
N         2.54213433823131    0.20407052192680    0.44079226247010
Si        4.11501438601908    1.18618264455629    5.12497466173545
Si        0.97494176844263    0.63133592632011    6.04961763310603
O        -1.70969233863190    6.66170101117247    3.02385807698919
O         1.04016982055560    4.32094738915255    0.35790630048482
O         2.33466374569360    5.92922731577001    4.50194825005316
O        -0.60758602257067    4.19922765866805    6.39400735772753
O        -2.27862260444958    2.28519580701543    2.30782725591403
O         3.49687266471675    4.18206330458386    2.41376942610238
O         4.71096512488025    2.89897089467402    1.01434084693170
O         0.73717117604155   -0.49717550696553    2.88128671316731
C        -1.06715774000542    5.72201552552528    3.13927459312738
C         0.67090452141721    4.24369192466941    1.43776768930860
C         1.54685143082678    5.25696068859734    4.01799407582836
C        -0.42344057435900    4.07091241295030    5.27141563926871
C        -1.43079861518965    2.93989486000433    2.70469298595231
C         2.27310548303937    1.75054863693395    5.12690778383545
H         2.24833031781469    2.71008729084891    5.65713624880741
C         1.44727049693214   -1.21410303690045    5.94806065102895
H         2.49353460386644   -1.39791175910095    6.16366324713646
H         1.23052911978232   -1.61616414915978    4.96397300947499
H         0.85941270992750   -1.77934024569664    6.66402548034844
C         0.98520848506850    1.22214051341493    7.86340693134020
H         0.31051082349325    0.61845249108181    8.46058706308151
H         0.65905888144731    2.25394785843555    7.94828255751616
H         1.97077951852776    1.15042407993221    8.30921576217261
C        -0.80125754280038    0.79611154205655    5.37921944136130
H        -1.44049468917335    0.04333298244208    5.83253055162067
H        -0.83630922261105    0.64064843104121    4.30542593991265
H        -1.24253979098339    1.76484160803514    5.59117590225495
C         4.59274483990152    0.71965266185184    6.91332785759578
H         5.63284526362150    0.41196577847389    6.95226731208224
H         3.99551465125106   -0.09307873017625    7.30999671329420
H         4.48150248633475    1.56691380208158    7.58239151428921
C         4.39900934984653   -0.30555766547187    3.96722424011199
H         4.72397088636580    0.01697633144293    2.98273395521407
H         3.49575147124704   -0.89359446040157    3.84231228856577
H         5.16652439310476   -0.96260290463009    4.36432387079965
C         5.24070937907458    2.65016634726773    4.63709920232783
H         5.58391062747052    2.56916118379722    3.61064447203679
H         6.12308603061321    2.68874452919514    5.26868497295611
H         4.72271986550950    3.59931165846459    4.73874308088783
C         2.79993369693264    2.02969849525771    2.14866054738911
C         3.76767388022608    3.02755219500319    1.76819729967266
C         4.37632120486915    5.26149570233652    2.13681881437341
H         5.41325006037014    4.92056643826627    2.17116124590155
H         4.19512964489208    6.01723219306341    2.89642152850316
H         4.16983055764864    5.66754777688641    1.14392049531658
C         2.32183533098832    0.85759502449804    1.57498345049182
C         3.39557737273553    0.73663499194896   -0.60338167033910
H         3.82947490820800   -0.10396960194903   -1.14950934833979
H         4.20011085093341    1.31874357384387   -0.14999050819610
C         2.60415400518381    1.63199932362380   -1.55417454966272
H         1.78798395157431    1.08462779302756   -2.02190178476450
H         3.26142885583034    2.01022436304589   -2.33157055909803
H         2.18894713780779    2.47867556664610   -1.01384835493320
C         1.88130697096460   -1.05941725349213    0.17122997741226
H         1.72613940512460   -1.13648399397971   -0.90728757053370
H         0.90765119491000   -1.07724520182149    0.66268772040658
C         2.71906222891711   -2.23624337164991    0.66639120506667
H         3.71278958737675   -2.21691642057623    0.22455634371363
H         2.23553097327496   -3.17130591092956    0.39832196179259
H         2.81829420831130   -2.19543156418599    1.74774783021715
C         1.34106158907873    0.51437462107757    2.64148727762070

