97
CSD_code = QAHDAF | q = 0 | S = 0 | Stoichiometry = C36H50Cl2N6O2Pd | MND = 4
C         5.91533879810023    5.27659813248565    1.97743799891557
C         6.38103343530187    5.04080557722831    4.13988755699785
H         6.79760270356348    4.57851280908857    5.01134799751305
C         5.64696759703740    6.17146961160646    3.99885158063297
H         5.29709161909337    6.87386007963767    4.72796475979724
C         4.58080200722819    7.28252316071596    2.00213908741022
C         3.30468367895559    6.90983238670399    1.56026381867877
C         2.59734905143136    7.80190590717597    0.76878457834842
H         1.61715093729719    7.52548590865453    0.40937251634379
C         3.11847823587910    9.04416452295971    0.42853614298350
C         4.34378080165468    9.41634297127547    0.95741758872702
H         4.74663785833939   10.39289468434152    0.73270228064389
C         5.09174341018699    8.55431086214253    1.74939007378566
C         2.69352630463917    5.61047159611338    1.99433871149692
H         3.16821565134401    4.75834101792312    1.50190420475437
H         1.63280392659037    5.59379882062549    1.75883454987975
H         2.81172341703133    5.47552532164366    3.06936757127782
C         2.36218440390964    9.95099734069886   -0.49220224402551
H         2.47188453823437    9.60725326520583   -1.52154620993880
H         2.73834103803317   10.96874422166833   -0.43378871960117
H         1.30124810551528    9.95155672609514   -0.24950068661554
C         6.43004996852538    8.98526400473008    2.26160690967902
H         6.46228053668341   10.06564299827834    2.37440301568237
H         7.19089508906712    8.69544765316293    1.53802054783531
H         6.67135133091586    8.52143503832603    3.21473635295151
C         7.17295129914991    3.24580597988861    2.59663347559437
H         7.10929273789183    3.06310575447132    1.51252164368844
H         6.62452917642241    2.44488329362264    3.10588815925746
C         8.62631842701565    3.13378439309306    3.07117063624744
C         9.28645152498984    4.97279897433369    1.52638907973043
H         8.34992653228975    4.76699729309233    0.99288226480863
H        10.09554785680215    4.93937935566011    0.79197149080558
C         9.22560226101705    6.37411350718233    2.13092994416552
H         8.52472010549052    6.40695362733087    2.96143121036726
H         8.89078234542852    7.06561883681209    1.36336480497239
H        10.19929958268838    6.69603561020277    2.49254118816750
C        10.92091710100119    3.80997852572129    2.96004513995041
H        10.90153987905377    3.41818429592736    3.97940325231590
H        11.38683063874798    4.79698933838596    2.96527710295246
C        11.70887481555516    2.85417516200724    2.07018168900997
H        11.24453289359800    1.87196895255861    2.08403636608152
H        12.72708319550538    2.76362113009384    2.43848802469764
H        11.74536558787726    3.21515732863866    1.04447148370703
N         5.36932586959179    6.29652197845468    2.66325963828971
N         6.53780532588312    4.50715841211138    2.88651482668480
N         9.54133945386626    3.95070707109777    2.51899024344603
O         8.91879854403421    2.29603236892204    3.90755304271834
Cl        4.57529939033505    3.06186538852653    0.42862902529477
Pd        5.72286051385331    5.00439815407311    0.00019714975910
C         5.53331191053252    4.73389653903417   -1.97758522528056
N         6.07877841941696    3.71367153689214   -2.66342751185705
C         5.80093164619594    3.83872342364048   -3.99897867849723
C         5.06699279973122    4.96948550879210   -4.13991731510449
H         4.65018567334409    5.43172684828731   -5.01129016991803
N         4.91054974711185    5.50321831079800   -2.88654360091628
C         4.27516290246327    6.76441004386339   -2.59652398587275
H         4.33880944863197    6.94701609898647   -1.51239816666561
H         4.82348223868843    7.56544006251160   -3.10569613194218
C         2.82178976238720    6.87623802433491   -3.07111457330255
N         1.90680820548005    6.05931552842021   -2.51885652677439
C         2.16174523559454    5.03723119214662   -1.52626756373382
H         3.09819292907687    5.24313738528196   -0.99270722593429
H         1.35260763155332    5.07054215139151   -0.79189579041744
C         2.22279520908181    3.63593697140780   -2.13082929665990
H         2.92384799955432    3.60314086252105   -2.96118427281581
H         2.55749339338901    2.94444870932612   -1.36319758344249
H         1.24919703653599    3.31395991737875   -2.49264865312336
C         0.52723425806744    6.19987140950087   -2.95997405540240
H         0.54661440432794    6.59165876956995   -3.97933516636452
H         0.06143124633383    5.21280693405756   -2.96521718101352
C        -0.26088159439178    7.15558203493134   -2.07015147262319
H         0.20335520853093    8.13783800387023   -2.08396322491681
H        -1.27907709078832    7.24603248121854   -2.43851848360934
H        -0.29739556158823    6.79458833670715   -1.04444730423821
O         2.52926821307409    7.71383965814773   -3.90763303110811
H         6.15044994267582    3.13618788932304   -4.72812591613775
C         6.86714026774901    2.72754693176824   -2.00229580992910
C         8.14318539863545    3.10028718412769   -1.56027364724550
C         8.85047149480717    2.20825682013307   -0.76870319335556
H         9.83061543066264    2.48472629889211   -0.40919241550078
C         8.32935643132200    0.96597684996029   -0.42848662122630
C         7.10413941561978    0.59373175505411   -0.95751693943808
H         6.70131474310185   -0.38285028618595   -0.73285249708435
C         6.35620846885658    1.45574162019629   -1.74955979487610
C         5.01797028197282    1.02467964584472   -2.26187694329078
H         4.98583303245664   -0.05571647388134   -2.37458680290337
H         4.25703488825163    1.31451429159296   -1.53838138559446
H         4.77673923702679    1.48838785954154   -3.21508480641140
C         9.08555078656766    0.05924523326050    0.49243164941780
H         8.97561682931724    0.40301275124112    1.52174138685902
H         8.70951937259084   -0.95854405153745    0.43398544445567
H        10.14653297904472    0.05879344949622    0.24994657428828
C         8.75423783842944    4.39970120940146   -1.99430242725761
H         8.27923148458984    5.25184396874691   -1.50221628947459
H         9.81483737063972    4.41659424735514   -1.75850073028097
H         8.63645678869028    4.53441505314592   -3.06935624744301
Cl        6.87316674200499    6.94529165881056   -0.42953126289828

