64
CSD_code = QAHDIN | q = 0 | S = 0 | Stoichiometry = C24H34BrN3PdSi | MND = 4
C        12.54536036585761    0.90554367746607   11.08382280714736
C        11.15060484724664   -0.65851239306263   10.30207326547705
H        10.79515850725485   -1.40041954263337    9.61571385105372
C        10.63834571025942   -0.23301579062273   11.47599703781823
H         9.75951038748736   -0.54542633931745   11.99968726389012
C        11.46965035940551    1.37547551576927   13.18841772259019
C        10.34274706921604    1.42305740589418   14.00120825089711
H         9.41814016067127    0.96011982654194   13.69400365179862
C        10.43799554819000    2.09618578165453   15.20509046627536
H         9.57482358688000    2.15033743957095   15.85154336899423
C        11.63232432288195    2.70613795894669   15.58558504713508
C        12.69278825352132    2.60187264743646   14.69504504950279
H        13.65260935182804    3.04808909137475   14.92142248164570
C        13.59961024507105    4.27169843508180   17.41099078520571
H        13.72738509577634    4.81168939525059   18.34426660788041
H        13.87195605658960    4.94658752157517   16.60514936308827
H        14.31520364348222    3.45494864913450   17.40735218232603
C        10.57274973235272    5.09307477931203   17.20374544748972
H         9.55068131281012    4.74579816162303   17.08291049672990
H        10.78461820956285    5.77957702174318   16.38940781659580
H        10.61778187856414    5.65897801441569   18.12898161950995
C        11.37048646099205    2.42515142753187   18.63066349703808
H        11.44770001266367    2.90591303819855   19.60071448435967
H        12.03696445843131    1.56772796201897   18.63662377970405
H        10.35559627913860    2.05103788424076   18.53259925826140
C        13.14265508257658   -0.16539609822228    8.94237392874526
C        12.70523027847736    0.31925910479758    7.70613080939130
C        13.49757315229548    0.07149201644097    6.59393958333366
H        13.20036671753446    0.44033349065008    5.62623805558860
C        14.67374913381557   -0.64358274765027    6.71427552109739
H        15.27402338026408   -0.83739397032956    5.83786974643691
C        15.09997641226541   -1.09358568218626    7.94954060690284
H        16.03122242028702   -1.63017308588828    8.01876895860226
C        14.35321077101204   -0.85123617342914    9.09446958668879
C        14.82355862193537   -1.30138838984101   10.46121008011031
H        14.57075865499219   -0.50620794281238   11.19023431680639
C        14.10774180367216   -2.59518346804449   10.86330923263196
H        14.34179837756758   -3.38645387666144   10.15307276520829
H        13.02767096990924   -2.46582169424114   10.88630168245589
H        14.43484479782452   -2.91115542277523   11.85132091735704
C        16.33646505925085   -1.49469969393749   10.54537609255768
H        16.85236969317710   -0.61148066936097   10.17801378830232
H        16.66223784035764   -2.36419811051372    9.97861936862499
H        16.62228794155488   -1.64542945456848   11.58381956698757
C        11.45413402489730    1.16607801134775    7.62292452265231
H        10.71915713390140    0.78524637751437    8.34079320269309
C        10.79486204525974    1.14583869899090    6.24471215214387
H        11.39088494946518    1.68805818738617    5.51549536127981
H         9.82051517624507    1.62647106249653    6.30013439008716
H        10.65472817217289    0.12494495539601    5.89597032354689
C        11.80734690966326    2.60515505052257    8.01965428720190
H        12.55112489853296    3.00866554451283    7.33639347732447
H        12.21727072444185    2.64757383310866    9.03002172105236
H        10.92082937029912    3.23429519006797    7.97840613775098
N        12.31386281199057    0.04200853560707   10.07956085663782
N        11.50528317319405    0.72269904515548   11.95867713811027
N        12.62199694945935    1.95836509092738   13.53713163250424
Si       11.81563179523613    3.64580116020903   17.23240818881197
Pd       14.00824875533108    2.04591413040574   11.78712060972996
Br       15.68554261569991    3.18023114283252   12.99704639493784
C        15.06123183676507    2.34587586310249   10.05334494215894
H        16.07600468053180    1.95279332943105   10.18746385741821
H        15.13271251955070    3.43758660598477    9.94289758050544
H        14.63779849241381    1.92527248447653    9.13924301323871

