72
CSD_code = QAHDAE | q = 0 | S = 0 | Stoichiometry = C24H35O9PSi2W | MND = 6
W         2.09582461502710    1.38762161456481    2.52202807600540
P         3.33714133712103    3.15452581260501    3.77311057688918
Si        1.40715223612142    3.96465048143063    5.97026049083367
Si        1.90769624681104    5.87380837175859    3.28771702428222
O         0.37456999167483   -0.68585046322392    0.94744374150102
O        -0.39495746094608    3.18100202738684    1.94940507600338
O         3.24737693275623    2.27705525573593   -0.25413916140765
O         4.18065741108817   -0.94704385623613    2.38031881474776
O         1.01191236536553   -0.02969827773015    5.10259931206751
O         5.33422833162051    1.66134212901484    2.13793685805497
O         6.16141836389664    3.53931691799985    1.23111870253443
O         4.46412269406932    0.57189214832482    4.78775619991038
O         6.60235873115654    1.21096578040522    4.54028217075719
C         1.01743550866958    0.06269819884915    1.53376317591118
C         0.55394559667027    2.61638870393798    2.26987188519722
C         2.83096098118491    2.00944413203727    0.77972306043124
C         3.51924171070117   -0.03568280108380    2.53417780646350
C         1.40692563386166    0.57106931111387    4.21534134911407
C         2.59007442926277    4.60430034310429    4.57818357066859
H         3.40649936633302    5.11159445101859    5.09727648395590
C         1.22559483762934    5.45278958531282    7.15546987313616
H         0.80635671092772    6.31598134216501    6.65003205212490
H         2.17892752564092    5.75278792982182    7.57905170955556
H         0.56676563033851    5.20493944026676    7.98006739789606
C        -0.31416969618430    3.38572945430291    5.40153944423496
H        -0.24273693309521    2.59826535972806    4.65640036946797
H        -0.91547418238253    4.18497512773234    4.98679835730664
H        -0.85687430521083    2.98004723990876    6.25064204527504
C         2.17287433581645    2.49735091743538    6.92621542682516
H         1.38997581381677    1.85608730934506    7.32077884596822
H         2.77297280410240    2.81610573026978    7.77409951299929
H         2.79236671443851    1.87843464316297    6.28026774035007
C         0.02698111102875    6.16933769397882    3.32800781240915
H        -0.21703928451441    6.99509974523358    2.66625450923966
H        -0.32032094038492    6.43604669283424    4.32041627809291
H        -0.53927736774441    5.31045181879090    2.98929115045604
C         2.68458872715987    7.56053641520495    3.75495858903878
H         3.74573791798942    7.61708394651430    3.54212673343608
H         2.55197356689568    7.76896273868101    4.81210378394264
H         2.20178996810272    8.36171566671092    3.20482540652033
C         2.40486756242092    5.38944967256364    1.50985766911525
H         2.59402291556561    6.26495590752676    0.89524850448516
H         1.61327563481454    4.82358489983592    1.02797174455315
H         3.29978111104510    4.77144217602005    1.48700308065100
C         5.12149564622349    3.67818056949314    3.34255976856894
C         5.62539576376739    5.10302180141517    3.38037194613560
H         6.57585713973182    5.13599753699092    2.83579309710304
H         4.93484160276553    5.75377208093816    2.83299876201250
C         5.85462929061505    5.68457173767582    4.74511670206362
C         5.72526851388940    4.99965475072115    5.87704965540900
C         5.37159578088062    3.54182052450021    5.94449500135927
H         4.59377864979465    3.40095350582092    6.69941150161386
H         6.26079932736308    3.00646957801732    6.30072180170538
C         4.93428182958906    2.89472612073610    4.64132338761863
C         5.55432384608737    2.85643545445865    2.20742415208162
C         6.54034799423697    2.78427480339891    0.08636470286212
H         7.10843737480606    1.90196454901918    0.38632284090439
H         7.14882944771837    3.44750170546118   -0.52310312346127
H         5.65451761920215    2.46441032613621   -0.46460870071489
C         5.29503345985656    1.43234478399344    4.62096378164330
C         6.99317181881021   -0.15674979310874    4.47293719582929
H         6.58250131915113   -0.70912201811674    5.32023634965050
H         8.07989829696195   -0.16395949321024    4.49460411525808
H         6.62142152149771   -0.59705665440159    3.54666241734613
C         5.97720202800440    5.63783450491979    7.21499906394404
H         6.99734745269027    6.01494767873670    7.27699248845171
H         5.82628217623550    4.92439279795755    8.02042009198993
H         5.30698998141409    6.48276106318727    7.37174652528794
C         6.28137397415851    7.12598285471099    4.74866759417113
H         5.58762005874855    7.73729858219145    5.32450642929610
H         6.33353123641377    7.51810585289250    3.73657947012472
H         7.26468164872219    7.23160306109336    5.20633973075675

