58
CSD_code = QAHDEJ | q = 0 | S = 0 | Stoichiometry = C23H30BrN3Pd | MND = 4
C         2.43768932943449    0.78524753752184    2.64018897458369
H         2.90274167227140    1.77385597498862    2.66334869456179
H         3.06405334224588    0.13319677859710    2.03168671472995
H         2.37563383504534    0.37037558850951    3.64491237711636
C         1.08602916660340    0.89599772354845    2.02569063781644
C         0.20925903420408   -0.18770777300811    1.99228457110682
H         0.51864793701207   -1.13402510212742    2.40706345115563
C        -1.03881546582962   -0.03364023091033    1.42274347286751
H        -1.73261753006234   -0.85968941322745    1.38020300976405
C        -1.39242847521878    1.20640576502196    0.90898483187461
H        -2.36100284714084    1.36935427076794    0.46243216294319
C        -0.46479383057556    2.23156402103502    0.96985209627373
C        -0.75908767127883    3.61384355568814    0.42623884293637
H        -0.11758212973575    3.77631313313590   -0.46248652726634
H        -1.80890362932990    3.70666758495325    0.14050515266894
C         0.84303102777288    4.96874147612079    1.69024749265250
C        -1.30844875094802    5.31577753301923    2.19511766548614
H        -2.36923839003410    5.18101252668657    2.13861422439722
C        -0.56347824228802    6.13652425982555    2.96987885364560
H        -0.85292820783987    6.84492269666612    3.71833637220759
C         1.82875996105171    6.69853454912294    3.15022521821510
C         2.80825950948836    6.11801231766710    3.95962155417915
C         3.80889804115968    6.93880559435929    4.46667603964396
H         4.57360390145819    6.51573874809288    5.09891265036970
C         3.84371454438019    8.28697685681493    4.17582455960933
H         4.62659983738141    8.90850010200031    4.58384118977618
C         2.88539837726559    8.83782462403277    3.34805782601737
H         2.93382962619705    9.88804806513850    3.10630208490128
C         1.86763632509719    8.05856453598487    2.81630130192083
C         0.87414075188189    8.69287125476153    1.86821063628811
H         0.15509303225448    7.94192390203217    1.52928607307644
C         1.59470983582917    9.22117893066611    0.62488428447005
H         2.30291701379264   10.00382476693588    0.88300000566151
H         0.87185504877825    9.63028900549365   -0.07756971618949
H         2.13647221518049    8.41636045952732    0.13343877318927
C         0.09213205264890    9.81148434961855    2.56099895353162
H        -0.40609359274432    9.43870362755819    3.45387029357821
H        -0.66238069047898   10.21163375832183    1.88745763309154
H         0.75201406904497   10.62335002931653    2.85474494963369
C         2.82940310523723    4.64505133410504    4.29488651443613
H         1.95167009165125    4.15276658956811    3.85450599860921
C         4.08605867747893    4.00153609632263    3.69306400870599
H         4.00003154381837    3.96952442051717    2.59218174287676
H         4.21169042761924    2.99078959866381    4.07636649870798
H         4.97646166695257    4.57123977813734    3.94552059770424
C         2.77254619790764    4.43117660087253    5.80981182082278
H         3.67001504173342    4.80699999391928    6.29356468656886
H         2.68614736796612    3.36995651793930    6.03231106029047
H         1.91246653166957    4.94341996361587    6.23717529549522
C         3.29494196053839    5.35478025081855    0.15551373200772
H         2.91448809730188    5.54745483156156   -0.85811710736734
H         4.34922673318564    5.07470898636958    0.08259700011908
H         3.21392301477816    6.26763932039147    0.75328749923145
N         0.74319250788434    2.07318597478473    1.51050216552972
N        -0.42981449490528    4.62231711012945    1.40447057394517
N         0.75563910098192    5.91408482107894    2.64642820802506
Br        3.58887041809658    2.20168561855456   -0.25463092091863
Pd        2.22242197615406    3.78211880839502    0.90153324274251

