67
CSD_code = QAHDEI | q = 0 | S = 0 | Stoichiometry = C21H31N2O9PSi2W | MND = 6
W         7.35956267474663    2.95836142170482   -0.30468234610412
P         7.13461091487729    2.84566228378531    2.14873841991258
Si        5.53763238910568    1.09753646386250    4.17655325608607
Si        8.77914573360822    0.74986296912647    3.52078931823931
N         8.27717660178837    3.66868906345468    3.01109181383830
N         8.72222885087367    5.72980273718952    3.93470695711879
O         5.88152187939504    5.73083359744162   -0.35286768742379
O         9.89405047942282    4.72390821534698    0.25458052076997
O         8.74719860902224    0.14577315613743   -0.32456336129813
O         4.80815629513666    1.17065358062360   -0.67306051589032
O         7.71311280794435    3.07393424815358   -3.41195707631107
O         4.24931524095376    3.53306168921297    1.01729974708645
O         3.50529496159166    4.30211466659587    2.99873583775168
O         4.94330182769582    6.76447679738537    2.62560923073256
O         5.50726463444385    6.63422886951157    4.79898760762930
C         6.38881551112817    4.70730440224970   -0.32417362837273
C         9.00152924688587    4.05141759626320    0.01423001918652
C         8.29430595894212    1.19599587001143   -0.29607933715543
C         5.71043650683346    1.85994154993216   -0.53701958279736
C         7.58864950932869    3.03076451594724   -2.27476242539279
C         6.99899954615318    1.21140325932677    2.92714962959915
H         6.75679715415946    0.53882210874120    2.09839200950244
C         3.93103773424304    0.96226624830936    3.14615077176316
H         3.21100886380005    1.72373504652274    3.42967098291308
H         3.45352412101362   -0.00266851571040    3.28893828107458
H         4.13108618785065    1.07061239050939    2.08367837576335
C         5.68036561679102   -0.52501367660137    5.17120653571523
H         6.55131977800759   -0.54183841665853    5.81623010144692
H         5.73133405604743   -1.39085797433287    4.51983526678059
H         4.80476118158464   -0.64385227586078    5.80118333436969
C         5.52788865321743    2.56540640993317    5.39179986233956
H         5.29345622511797    2.23554852739427    6.39939760394281
H         4.78511168732487    3.30695787615518    5.11390922961193
H         6.49128080713437    3.06449789325981    5.42431316904724
C        10.17088807631025    1.33011591784150    2.34989340081579
H         9.85964914944960    2.18759687176308    1.76084895056727
H        10.46956459652771    0.54260230963404    1.66472693693195
H        11.05308146435325    1.61972851073427    2.91328801995092
C         8.86295835452251   -1.15713169676968    3.54843462038915
H         9.86771550310730   -1.47569157658562    3.80297656723904
H         8.62284254024985   -1.58299457594942    2.57941840167362
H         8.18945241614296   -1.59155585091719    4.27647158574193
C         9.07810667589995    1.44412791540400    5.27222156322022
H        10.04696039709667    1.12590152365276    5.64362001464887
H         8.32747610084069    1.10129769537168    5.97592162369615
H         9.06221235352814    2.52835525856864    5.27156516303040
C         5.82900564722553    4.01887283172583    2.63257495049736
C         6.42491102734409    5.08659436720095    3.23015964123042
C         7.85787962899809    4.84635447147485    3.42375551708667
C         4.41020499321243    3.97996523780258    2.26776235295794
C         2.91853629830363    3.46008307449260    0.51821130838334
H         2.26980710705642    4.12433016060923    1.09177807768244
H         2.55542999864509    2.43396406455065    0.59989799268423
H         2.95231348701199    3.76109804497861   -0.52720407114097
C         5.60249474554244    6.24569533460623    3.66218147898715
C         3.96712977246212    7.75451702938842    2.92267389627893
H         3.06902915957078    7.26964154887224    3.31032645703208
H         3.75300290837460    8.26417057258651    1.98670400883261
H         4.34968963312412    8.45268622863895    3.66979801448507
C         8.36103460819387    7.07498910280109    4.31336104033868
H         7.84380365902655    7.58407622121336    3.49616644433215
H         9.27031924673181    7.62617495621835    4.54191027808160
H         7.71109350619249    7.08204493509542    5.19076597939707
C        10.12424484781062    5.38763225561002    4.01483193909471
H        10.25023785602449    4.35711363573240    3.69333878068972
H        10.47603189334159    5.49765535674694    5.04229248808214
H        10.71001010162290    6.04074567195382    3.36401465560871

