107
CSD_code = QAHDEK | q = 0 | S = 0 | Stoichiometry = C34H58N6NiO8 | MND = 6
Ni       15.54026778650979    9.77287102395703   11.23127499967836
N        14.69398775891343   11.00252974442792    9.72845418620749
H        15.49157101098159   11.66704455144365    9.60445190169264
N        14.75801086900259   10.97460769759581   12.48455134256786
H        13.89221204429593   10.44236097346811   12.75975808994332
N        16.30600313628901    8.47671908955517   12.86178523295693
N        16.26070721085626    8.51779297497967    9.88713551783280
N        16.17078093355314   10.28052732978535   14.43477152359557
N        15.01241807780522    9.33162009215975    7.94537398745754
O        13.57494091826317    8.46698743657623   11.33334958755045
O        12.36953222740468    9.65653882916007   12.76083046816303
O         8.78486873383439    9.62853913414787    7.46852948572078
H         8.79375880262371   10.29352114544993    6.76131807346815
O        10.78619016881757   10.48193136580079    7.94017961079779
O        17.48638391887061   11.03033784758221   11.21958703587678
O        16.87401435098138   12.69212242053100    9.88058219063147
O        19.24344456953839   15.01992264521219   15.60279342243095
H        18.76606495239863   15.17489312461669   16.43364466447899
O        17.28572839732579   14.19125076045744   14.93998654131306
C        13.65286093767234   11.74328654591566   10.44880891996796
H        12.81539001006132   11.06259507928634   10.64143422716728
C        13.13704112244277   12.95743975437673    9.67139841479177
H        13.97817833906985   13.61680485394244    9.44597661160071
H        12.68631045800717   12.62882318527642    8.73442083670826
C        12.09242254450131   13.70244519395785   10.49606808979951
H        11.74182697513125   14.57690845259163    9.94474485086703
H        11.23520521237674   13.04725835346659   10.66521486582739
C        12.67700272579171   14.12914122580150   11.83602491087578
H        11.91884812454998   14.64558988328322   12.42790413846630
H        13.50184225236195   14.82485008060092   11.66640402691884
C        13.19224101051639   12.92042558097535   12.61216786830522
H        12.37209865893302   12.23161185949734   12.82546524945465
H        13.61100417420755   13.26518234464582   13.55814724266207
C        14.25363555172223   12.17690837741469   11.79346041856420
H        15.10115932546466   12.84391715904149   11.59309983749369
C        17.05689793374991    9.41489850638339   13.71686440132372
H        17.66158533176185    8.85753122825194   14.45384165969424
H        17.70697348891120   10.01767176688725   13.08100902206449
C        15.55690968277269   11.33256176769980   13.68056160962945
H        16.35260393388534   12.00210362116947   13.33644239239153
H        14.92992058335490   11.88966650505071   14.38495523233960
C        15.33865041999851    9.52652639819634   15.35358957512723
H        14.64602019321515   10.20781894406556   15.84934907081319
H        16.00891531061912    9.10998832972735   16.11572799888715
C        14.57760074853913    8.39835358346755   14.65814109158811
H        14.15527107060303    7.71661394608075   15.39883069880152
H        13.75489280305531    8.81582836702252   14.08500726680014
C        15.50821873223136    7.61206348122726   13.73758892445442
H        16.19945944096702    7.00913920041263   14.35458163787404
H        14.91402089237328    6.93328617125830   13.12326144122464
C        17.17571346044982    7.65883466116383   12.01305928689279
H        17.48071260435924    6.73414925628053   12.52711460770645
H        18.07632244054661    8.23355330363501   11.78744905008248
C        16.44087408955381    7.31740019819330   10.71771057655184
H        16.98486283309580    6.53983149501554   10.16003272765680
H        15.44740457979952    6.93889160835006   10.96811508294100
C        15.21511587794463    8.25355057378285    8.85930494964532
H        15.51869506263950    7.36897136262158    8.27517902262442
H        14.28103628171191    8.04475166140604    9.38384556638070
C        14.25141920101625   10.45180545612272    8.44261389447539
H        13.21437717085151   10.11789636980581    8.56396294987133
H        14.26784105946051   11.21775474141810    7.65775199701946
C        17.51956130895011    8.80511592904476    9.17601425753736
H        17.84036963578543    7.88108351547662    8.66603270343166
H        18.28585050415210    9.08781723966653    9.89845821926919
C        17.39499789309757    9.91573152054171    8.13667439097139
H        18.32845692812564    9.97266305009605    7.57326728458445
H        17.24050055768291   10.87114493803226    8.62867136275363
C        16.22204124224413    9.63083181630987    7.20402584524575
H        16.03592465195313   10.47885152118740    6.54382269718977
H        16.44266344199455    8.75610041279497    6.57957264149983
C        12.51711983057939    8.71874810726818   11.95201589417599
C        11.31215612865052    7.76238392356864   11.76110044972977
H        11.36028255703698    7.06811779203700   12.61095915996427
C        11.38027562699382    6.96532850125652   10.46171002338696
H        12.33963722786325    6.44767641672295   10.39949901277820
H        10.58616029484513    6.21353633130538   10.45843291832020
C        11.22941990580175    7.88208366395317    9.25417851959163
H        11.25230085542448    7.29665033103064    8.33146908752631
H        12.06795749468909    8.57756229793559    9.23312362467506
C         9.99877078189814    8.53916728682084   11.83605761245349
H         9.15831254226002    7.84075476709480   11.86192673318513
H         9.98820684706471    9.12992103514703   12.75324291596381
C         9.85931920408665    9.47359908057551   10.64040119961693
H        10.66861545042232   10.20606498325539   10.66096033746569
H         8.91145012911598   10.01463995115614   10.69626382440173
C         9.93277770824328    8.69488653402951    9.31917422916090
H         9.06259971784206    8.03923482637131    9.22632692907219
C         9.91233739548242    9.69127135757599    8.18843075547019
C        17.68278582371044   12.11954553092332   10.63204149138928
C        19.07754687401025   12.78370605064111   10.77875814448173
H        19.59330123634122   12.55409348386388    9.83628777616050
C        18.92590452270655   14.29933422667387   10.89416825123936
H        19.90495752187822   14.77688945101287   10.80109529424443
H        18.28941965581046   14.65182165113866   10.08125119016425
C        18.29431058440448   14.67313494884463   12.22896886260728
H        17.29832036068140   14.23179094982868   12.29888547100402
H        18.18650742680943   15.75812159123795   12.30105031237620
C        19.91050392574999   12.24048880599402   11.93663283774896
H        19.94909491813262   11.15072516961497   11.87788838305901
H        20.93142120101593   12.62205683757636   11.84534901777514
C        19.33621395029655   12.64252739775809   13.29071449124523
H        19.99941008778432   12.30159920642212   14.09001774124114
H        18.36920838854701   12.16046223756127   13.42984664410496
C        19.14224733805964   14.16180734902037   13.39698723231993
H        20.11502375467106   14.66140523313572   13.40769492722995
C        18.43618804856496   14.44787412677225   14.69805919548600

