61
CSD_code = QAHFOV | q = 0 | S = 0 | Stoichiometry = C26H26N4NiS4 | MND = 4
Ni       -0.00127653023827   -0.00017069720477   -0.00503011394580
S         0.71180432521959   -1.52903172809782   -1.48872955244392
S         1.82923604380171   -0.70335349846137    1.02746596930458
C         1.98617736532763   -0.72462080006557   -0.67645739792374
N         3.00511618865767   -0.16545121151592   -1.32166672667831
C         3.83806280330074    0.82051248198782   -0.66175909752656
H         4.84616817881405    0.75009628989938   -1.07704931313884
H         3.88357009686663    0.56848719216607    0.40342362456955
C         3.30512545079381    2.22646969725840   -0.83045847625561
C         4.18921973600333    3.27064219749729   -1.06712409487727
H         5.24813583186462    3.06609472320727   -1.13575777178799
C         3.72609069019836    4.56491754151058   -1.21950890114602
H         4.42710278924509    5.36468130548007   -1.40746945982983
C         2.37117247287271    4.83301170977196   -1.13952628394429
H         2.00827589279578    5.84169691196941   -1.26586236905000
C         1.48168751760014    3.80042170594425   -0.89991143643723
H         0.42230289988778    3.99614406979273   -0.83342826928953
C         1.94844765068811    2.50944220217170   -0.74333730391573
H         1.20624016630748    1.71108477261995   -0.56384882972818
C         3.06283208530815   -0.18474163096620   -2.78231092965680
H         4.11639868035992   -0.20420131846699   -3.06879123888293
H         2.58582159320514   -1.11184217447040   -3.11628312936741
C         2.40582829124781    1.00667786505258   -3.39382492904019
C         2.95670449806902    2.08622586391952   -4.04027568946649
H         3.99727995301771    2.23150057595170   -4.25379076666832
C         1.90447229325238    2.95883299753509   -4.37023053673276
H         1.99403402059829    3.89555817106920   -4.88258910870573
C         0.74845225995559    2.38808103801319   -3.91043767053990
H        -0.26499923346590    2.73294628792566   -3.95887925467113
N         1.05935615050148    1.20800423362355   -3.32426367321071
H         0.39420999950806    0.57419516110376   -2.89994482563181
S        -0.72028215513705    1.52546403358467    1.47969344143890
C        -1.99322443472176    0.72029446637548    0.66583528378866
S        -1.83354410891727    0.69836714647812   -1.03753315367900
N        -3.01250992083844    0.15979195790144    1.30937997979237
C        -3.83644659984030   -0.83482764610669    0.65108133435452
H        -4.84610838857994   -0.77051811405653    1.06345980376147
H        -3.88116695800475   -0.58743470542523   -0.41522137029923
C        -3.29342544472928   -2.23629099208993    0.82635430313653
C        -4.17122076225931   -3.28720272990773    1.05653388701280
H        -5.23226457619446   -3.09098006823756    1.11555896792199
C        -3.69926719572961   -4.57762275426905    1.21435410035399
H        -4.39556991918508   -5.38268118146317    1.39684609372352
C        -2.34166261359547   -4.83523802173413    1.14672923299310
H        -1.97194202217095   -5.84084718506931    1.27759680993705
C        -1.45837130133252   -3.79600510575324    0.91354121321719
H        -0.39691089326594   -3.98330085909757    0.85666045697875
C        -1.93399699735760   -2.50897369736311    0.75109590688189
H        -1.19624591296128   -1.70535349059545    0.57668816576979
C        -3.07810604020580    0.18787540432931    2.76948176018663
H        -4.13337535873964    0.20784236586093    3.04975917276723
H        -2.60415915504695    1.11764984758908    3.10028368906031
C        -2.42315810667402   -0.99853138432418    3.39263789259823
C        -2.97686875819891   -2.07687708676525    4.03863665623599
H        -4.01905992554568   -2.22494229904355    4.24200646774393
C        -1.92496463215623   -2.94387465321369    4.38397721419403
H        -2.01647153053315   -3.87827898474428    4.90021521860851
C        -0.76632939745833   -2.37112972793041    3.93343261309756
H         0.24773236069969   -2.71205910927010    3.99449004981510
N        -1.07532265930706   -1.19504733461064    3.33825986830705
H        -0.40880675356016   -0.56158002718713    2.91582249700789

