33
CSD_code = QAHHAJ | q = 0 | S = 0 | Stoichiometry = C12H18OPRh | MND = 7
Rh        6.70515873508532    0.69241866830249    4.36064051005958
C         8.58788269037425   -1.76103987809874    3.39549264151179
H         8.35630923252893   -1.67729218039766    2.32899005677563
H         9.50314964927327   -2.34942280592279    3.50815230253460
P         8.80300456691224   -0.02303584843744    4.01839187532935
C         7.40722008300469   -2.41633178692874    4.12987203952433
H         7.07001339059125   -3.29423788714623    3.56951727672207
H         7.73094498015351   -2.75428389717366    5.11788632129589
C         6.27294287191162   -1.43608344816946    4.29755750297171
C         5.46092614871471   -0.91382551194239    3.24287512754985
H         5.51116424872169   -1.20109206084302    2.20383301514035
C         4.55198587192657   -0.01930364381180    3.82231990725575
H         3.74792731912128    0.49249331414688    3.31553081306934
C         4.71375992292158   -0.07547750069711    5.25238603234670
H         4.04207764419721    0.38126782251094    5.96366673233737
C         5.71573558953110   -1.01504506769457    5.54283276703732
H         5.98814179825534   -1.39115508260778    6.51746579812314
C         9.88137545922986   -0.28449405690931    5.49483453201952
H         9.33375338696123   -0.95693416918316    6.16169360168249
H        10.81066411113065   -0.77784878744258    5.19915984744204
C        10.14931695044637    1.03463327035407    6.20602885360814
H        10.67673480968230    0.87045871630252    7.14350083123166
H         9.20198090015918    1.53194133322915    6.41801062120696
H        10.74886444516168    1.69703488505757    5.58547364561169
C         9.92820916555452    0.75005372260975    2.77427766862055
H         9.34125097651276    0.81007031968135    1.85215446955662
H        10.09453658239747    1.77790693984928    3.10990402958886
C        11.25592636422707    0.04966841066862    2.51267258549591
H        11.78530621825209    0.55871097126575    1.70933793033363
H        11.10183926763034   -0.98414500632390    2.21260753158599
H        11.89223146803261    0.06650694171415    3.39380339162100
C         7.01568476488344    2.49660024757465    4.42096941344949
O         7.30758038651361    3.61538305646379    4.44256032736113

