50
CSD_code = QAHHEN | q = 0 | S = 0 | Stoichiometry = C17H29IOPRh | MND = 8
Rh        2.48718654272309   10.48184853526569   10.45808160229904
I         1.34696382269108    8.17604338503729    9.81323140505356
P         1.57588468885273   11.70605679212389    8.79334798698739
C         2.99180948907690   11.82332108053722    7.59292393395646
H         3.03702603754113   10.84773148184190    7.09600156847953
H         2.80233519383926   12.58790971590403    6.83307305837847
C         4.31657303379284   12.08738484508336    8.32824609505439
H         4.39295791187740   13.14814389222247    8.57792293632353
H         5.15288943168660   11.84549747854158    7.66500356247034
C         4.40940685652082   11.26620995978104    9.58552017559361
C         4.19932975378692   11.78159951996887   10.94134447874925
C         4.35755882998552   10.69520650922688   11.84480693324343
C         4.47900173396417    9.51128554613463   11.07069594070681
C         4.60939138074391    9.88703190933412    9.67134039853539
C         4.20899818854864   13.21253637065252   11.37823466514392
H         4.09040991691505   13.89892734535907   10.54233818246041
H         5.15837623922503   13.43462241604073   11.86986512678956
H         3.41034163164371   13.39352430885141   12.09729498796383
C         4.43016912398218   10.82652317390344   13.33133681094169
H         3.57183799880183   11.38043294946230   13.71231754450566
H         5.33313039854633   11.37572915939541   13.60466680184365
H         4.45829524125792    9.85179222520661   13.81237262600814
C         4.76946619553402    8.13896403260112   11.58910112919360
H         4.41832961784510    7.37693039897464   10.89656290555386
H         4.29365730093082    7.97041104179041   12.55322422788698
H         5.84859182018466    8.02002192767760   11.71134386995798
C         5.00936198487492    8.94240776620639    8.58087999803460
H         5.96087153916061    8.47304156145249    8.83641294234213
H         5.12482639785891    9.46657022899913    7.63440501468448
H         4.27561509606188    8.14764140776674    8.44617829014785
C         0.21826798473388   11.04011180668905    7.73626180427262
H         0.56677280135613   10.06123539411857    7.39312679645499
H        -0.63872433399091   10.85401144522869    8.39057725505020
C        -0.20320618703307   11.89493514205381    6.54807217358129
H        -0.94037712390090   11.35082223513513    5.96094613225533
H         0.64144706817879   12.11778116245462    5.90040884642959
H        -0.65620866727232   12.83010798194881    6.86789736600311
C         1.13485921877320   13.48396388996523    9.02354306494028
H         1.99053512372993   13.96813983632594    9.50050032232740
H         0.99774150654532   13.93336638969449    8.03551479959255
C        -0.10319934047926   13.67308608244954    9.88919690619682
H        -0.33730077139137   14.73157475369614    9.98746542996786
H         0.06790771768698   13.26844829414069   10.88377714388902
H        -0.96592691778310   13.17043484134995    9.45656863136076
C         1.09517172330690   10.98945719001708   11.79550640077851
O         1.47579197153011   11.75867217887813   12.64566656728115
C        -0.31976299921426   10.45917547963744   11.79325961904608
H        -0.94277424370472   11.09581255581299   12.42186015901823
H        -0.31056760734101    9.45279330547065   12.21011596046114
H        -0.72904032217776   10.39832306959104   10.78855942179662

