46
CSD_code = QAHKUF | q = 0 | S = 0 | Stoichiometry = C17H21NO4SSeW | MND = 9
W         2.25710024510161    3.54219699073425   10.82503840569341
C         1.33057546139397    1.64417294685675   11.80438274504475
H         1.04271277053005    0.70523932028266   11.34683747699983
C         0.46094970968211    2.71984929369239   12.09915034460722
H        -0.59944400549990    2.75562070446196   11.87961862059198
C         1.16807142161315    3.67050236524490   12.87785551489558
H         0.72800741689505    4.53258005183054   13.36367093956009
C         2.47154818727923    3.16912498168633   13.09214348300653
H         3.21338774128091    3.58890111266823   13.75966244973595
C         2.57963130887969    1.91703627031140   12.41814650584570
H         3.40271663850544    1.21976796557347   12.51601438648025
C         2.90297027440659    2.70774282230541    9.16035636307330
O         3.39564241476120    2.15854583828862    8.27022833051676
C         4.15622567749006    3.93927028302384   10.46276593270676
O         5.23758056006076    4.19954521688110   10.15504793692805
C         2.46571321434318    5.48687764911358   10.45418750294428
O         2.64027130141940    6.60549342030850   10.27086621743727
Se        0.21367518331229    4.41942464801956    9.34861108972204
C         0.40069881881882    3.62659124294647    7.44439056177031
H         1.03209083909520    2.75299612467415    7.60156956992180
C         1.05766851225377    4.57750646619986    6.45141945408441
C         2.14493963328271    5.46458984457628    7.03594876689950
H         1.71835147231600    6.17532373549428    7.74041071997028
H         2.62361874506333    6.02710926671318    6.23856845488270
H         2.89887930465263    4.86196683469510    7.54677994789525
C         1.60908581881715    3.76008835427806    5.28350482078856
H         1.89293524525530    4.42526128251027    4.47193502088825
H         0.86544768242666    3.05808572856657    4.91292768323067
H         2.48751157238453    3.20195336703276    5.60379749800437
S        -0.34551970222996    5.61682427372565    5.89501554504787
C        -1.60290961379461    4.30449123247039    6.23077840427469
C        -2.68987839911291    4.89076786404877    7.12132880055945
H        -3.45431028518250    4.13975829719480    7.30573871972656
H        -3.13873274080893    5.75409283160299    6.63826897637422
H        -2.25343695463078    5.20278822489393    8.07202744305807
C        -2.15915973905715    3.81378167564176    4.90017416395600
H        -1.36619633910786    3.40322245155072    4.27949622663950
H        -2.60996379531423    4.65179780141562    4.37549027006949
H        -2.91075155686448    3.04785746827034    5.06975725389450
N        -0.86902639580017    3.25182016238641    6.94228757723140
C        -1.51326270161807    2.09609159322454    7.30158643809458
O        -2.64564460918182    1.84453181816385    6.95153767655950
C        -0.71799697631252    1.13181651243041    8.15370563462822
H        -1.36737587465837    0.29735582435590    8.40505187644140
H        -0.38541506497646    1.62040047282883    9.06930289925707
H         0.14761758282609    0.75653736682532    7.61111535006758

