52
CSD_code = QAHKIV | q = 0 | S = 0 | Stoichiometry = C18H26Cl2CrN4O | MND = 5
Cr        4.48769586911075    8.16834962231255   10.00069816020968
Cl        3.72217510692159    6.23921960665838   10.70728792957229
Cl        4.58199767961408    7.79709816611341    7.81575589219284
N         6.26502390061940    7.67886238320451   10.47863181835664
N         5.60521356739884    9.14473323933852   12.10984680469319
N         5.04212882691422    9.95784370965100   10.04811818222820
N         0.52971647466171    8.54291760780724    8.51265570684553
O         2.51285559936365    8.77790060879567    9.57247020634098
C         7.12236346000114    6.82954428817614    9.90302800659184
H         6.76978720402948    6.36947367146557    8.99180573893612
C         8.36383357538180    6.55488891465535   10.43416134958411
H         9.01491686757452    5.84884361507535    9.94482809258684
C         8.75770680794052    7.19724584724695   11.60190556205265
H         9.72188282184490    7.00706242438528   12.04524434542609
C         7.87704942031141    8.09462552584026   12.19725362689793
H         8.15531456417146    8.60828554178971   13.10421295996389
C         6.63785040453950    8.28791921372728   11.62355938959593
C         5.57082274360690   10.28029807357873   11.24843778919276
C         6.07338485248001   11.52678225630294   11.54707243274885
H         6.50681766805240   11.72537703538319   12.51507969442884
C         5.99820496733431   12.52883328290126   10.58019872873003
H         6.35446269482195   13.52319481906945   10.79316462518178
C         5.46833661919158   12.19999386017787    9.33741319660588
H         5.40841637234538   12.93670752520325    8.55225401132160
C         5.01888858671636   10.91911015367772    9.10520395430429
H         4.61315237563173   10.61714578818003    8.14995101081474
C         5.45406519938525    9.36761363080296   13.53814108840187
H         5.02651649489783   10.36472737593970   13.67413189604826
H         6.41791568481721    9.33792571214959   14.05966466497384
C         4.49465549396851    8.34591272082876   14.18433921476861
C         5.02416523432063    6.92319836614040   14.00897249266808
H         4.40453245807415    6.22517252531666   14.56653858861715
H         6.04698303404612    6.84058161905975   14.37235380595988
H         4.99680057948576    6.62600720478574   12.96323002712998
C         4.39869935058893    8.67606198594226   15.67682807864418
H         3.69924613704297    8.00182627341967   16.16407934927899
H         4.05112059706065    9.69620093355646   15.82792221974980
H         5.36813857812351    8.56792836505104   16.15918148930920
C         3.11614038778110    8.47286529279901   13.53604748996240
H         2.43981319198248    7.72471091443324   13.94020912570208
H         3.18646327715453    8.31786230945522   12.45770515808958
H         2.69408204704504    9.45968324010776   13.71849420188406
C         1.70004871427201    8.08302916465014    8.96323285266657
H         1.87733788138009    7.01986783802181    8.75841784046382
C        -0.40983995378772    7.70953952170556    7.81211505793778
H        -0.02124070686145    6.69701185358259    7.73518838154574
H        -0.58344203902733    8.09924156679541    6.80590634895031
H        -1.36403327048248    7.68510740871344    8.34467552003343
C         0.16558082376492    9.92864757055810    8.68542470836800
H         0.97614892842879   10.43058953606118    9.20953804410886
H        -0.75302109158590   10.00996126383922    9.27041707234836
H         0.01092393755893   10.40336902553826    7.71420606698826

