77
CSD_code = QAHLOA | q = 0 | S = 0 | Stoichiometry = C34H28N6NiO6S2 | MND = 6
Ni        3.44950265927975   -0.00002114482301    4.57728541973906
S         0.74534692441848    3.34057546821162    6.85159523013872
O         3.58362099793385    1.75078180826986    5.14665144218650
O        -0.38857331231020    3.83901691945491    6.12629350687032
O         0.50884204361688    2.91052700909241    8.20423847231236
N         1.50877596534809    2.16204291904590    6.00977207645292
N         2.19562001277306    0.55579350303147    2.88306027042075
N         5.26287278436878    0.49489125327097    3.19052925079365
C         2.73810793034658    2.47783762038523    5.72740261796750
C         4.36650701125231    4.47786315382116    5.96024406463380
C         3.14547180543844    3.85343496131854    6.15607229424312
C         2.11934575441006    4.50942077006758    6.81154999849652
C         1.45036256221482   -0.06885824209682    0.70079718137535
C         0.94011043034669    0.87358088431246    3.19345729883718
C         6.14279630905210   -0.43023405078473    2.82889608886290
C         2.43736449131404    0.10377487555330    1.65333393498803
C         4.52540826687627    5.77042956907935    6.43841330509817
C         5.43978404905562    1.73557264521036    2.75315291132635
C         6.50434284619504    2.10577097018830    1.94520738330947
C         7.23689833298170   -0.15749779435449    2.02219047158071
C         0.13994614424501    0.22609220246099    1.03872052125051
C         3.49036129808587    6.41903321968998    7.09677844770164
C         7.42411347730008    1.13940065731195    1.57141398211415
C         2.26633488925998    5.78816575543295    7.29272566549817
C        -0.11318211473409    0.72064049949114    2.30544826401067
H         1.45336751587266    6.28059092134094    7.80215837885736
H         4.69729508143149    2.45684828484511    3.06557220834422
H         5.46693236727934    6.28066939268783    6.29624567844643
H         0.77216350825737    1.27196050833696    4.18713956647404
H         5.95350843559272   -1.42986913196325    3.19469442674167
H        -1.11324563273236    0.97703730904480    2.61768989216946
H         6.60727540911592    3.12731900301380    1.61336883024838
H         3.63648317585239    7.42525829551426    7.46012293401348
H         5.16555439494555    3.96659891962892    5.44433380907345
H         8.26488420898970    1.38982553313053    0.94091609192315
H         1.69727807789549   -0.45509737096466   -0.27474303697887
H         7.92500530875992   -0.94346148041759    1.75191150286486
H         3.46705155804878   -0.13810386238329    1.42104536168507
H        -0.65818132616351    0.06667666903229    0.33040173046071
O         3.58361400040165   -1.75082673636105    4.00791589612252
C         2.73810315413290   -2.47786704069327    3.42713841411224
N         1.50876030211115   -2.16207938424269    3.14481019865208
S         0.74535368602332   -3.34056254238802    2.30289738628304
O        -0.38856367770572   -3.83907469048509    3.02814891711326
O         0.50885908256351   -2.91041640514926    0.95027895225155
C         2.11937014615504   -4.50938793406137    2.34286206341478
C         3.14548732101211   -3.85343011195380    2.99838096660704
C         4.36653249680289   -4.47785335710485    3.19416406795219
C         4.52544922002473   -5.77038754970267    2.71591315641780
C         3.49040920451821   -6.41896351766295    2.05751069754608
C         2.26637779272780   -5.78809637440845    1.86159650664739
H         1.45342529740546   -6.28048674352079    1.35210596087548
H         3.63655527433679   -7.42515031742156    1.69406883485322
H         5.46698244776751   -6.28062205268201    2.85804319673057
H         5.16556908268413   -3.96661715834958    3.71011940057998
N         2.19562456467415   -0.55583614645354    6.27154771526616
C         0.94012037980317   -0.87365604193180    5.96116444307513
C        -0.11317831216275   -0.72067505756730    6.84915982263133
C         0.13993975886510   -0.22605827080704    8.11586311367803
C         1.45035278900543    0.06891939031480    8.45377682420643
C         2.43735917773462   -0.10375091297207    7.50125137731623
H         3.46705170792085    0.13809660913446    7.73354949351314
H         1.69726512812089    0.45517956729042    9.42930933247517
H        -0.65819185969725   -0.06661033953950    8.82416968727887
H        -1.11324362284355   -0.97706405464403    6.53691742781209
H         0.77217230029984   -1.27203813343126    4.96748306065050
N         5.26278856077982   -0.49489180625352    5.96411251937100
C         6.14275919858302    0.43020978520419    6.32571009005822
C         7.23692611222016    0.15744171718607    7.13230367106078
C         7.42418747663085   -1.13947092316509    7.58301550713321
C         6.50437833176848   -2.10581669494193    7.20926647107266
C         5.43974472200933   -1.73558501476496    6.40145216172654
H         4.69730892652217   -2.45689018534671    6.08893038209205
H         6.60732289997940   -3.12737804809316    7.54111070937017
H         8.26491720464110   -1.38987609250344    8.21359340592757
H         7.92499710372511    0.94342848688015    7.40265915237720
H         5.95345897824377    1.42985565909900    5.95991154121013

