55
CSD_code = QAHLUI | q = 0 | S = 0 | Stoichiometry = C12H36Cl2P4Ru | MND = 6
Ru        9.70695327874414    4.54761813597592    2.94115864788411
Cl        8.53571685465421    4.54734431732625    0.84286991963662
Cl        7.60814009203363    4.54727996263792    4.14111368525002
P        11.75874987528521    4.54709196086094    1.93973166223368
P        10.31421335385678    4.54710031287010    5.17589911616134
P         9.33722889270525    6.84563390939086    2.59170853444639
C        11.81302955265481    4.54722736671501    0.10918019544454
H        12.84627481420457    4.54723232749949   -0.23927944794815
H        11.29045696457376    3.66831180832478   -0.26199467084416
C        12.91371332315938    5.93386038213970    2.29305358001841
H        13.81588120491132    5.82884590404338    1.69027968582190
H        13.17915658961921    5.91436664315756    3.34806517792940
H        12.43494993740136    6.88504659670581    2.07183570475827
C        12.06272785657476    4.54724418113700    5.76509147863178
H        12.07834413932970    4.54724650554716    6.85471174605296
H        12.57866766679824    3.66068787864610    5.40249892689673
C         9.72419284731206    5.95594883133620    6.19164303714959
H         9.79739776818362    5.69718987557795    7.24810385703041
H         8.68915741398353    6.17689553366512    5.94034326416679
H        10.35156002399270    6.82200931791005    5.99064548257126
C         9.76176086262435    7.51839258791855    0.93407563079294
H         9.37148654163379    8.53387420334122    0.86153271277232
H         9.29965996660584    6.89654564255932    0.17003543764350
H        10.83937555179842    7.53784578248909    0.78423258952433
C         7.57618844955221    7.32146922950879    2.64632380058651
H         7.47329401892985    8.36925799255975    2.36086884282044
H         7.18408136044394    7.16452631760017    3.65013024588104
H         7.02435357774999    6.68489077606044    1.95482398541181
C        10.04543616647471    8.20333768101697    3.62340308378051
H         9.96114713183613    9.14872376094965    3.08855577344211
H        11.09245656813169    8.00885518750476    3.84911593599915
H         9.48672308199208    8.27518642112430    4.55330729500415
P         9.33736275192803    2.24899895945940    2.59178268435638
H        11.29046726383589    5.42616964841165   -0.26195961401095
C        12.91383287221669    3.16047017048211    2.29306749191823
H        13.81600336843911    3.26556426268614    1.69031198614434
H        13.17920016316485    3.17998283317933    3.34809499239375
H        12.43505713355894    2.20930736911790    2.07180702470248
H        12.57864116008692    5.43382137043697    5.40249540837603
C         9.72416774419829    3.13838276483246    6.19175462799854
H         9.79736907123342    3.39721963634170    7.24819775791151
H         8.68914640066364    2.91743501090940    5.94041106001871
H        10.35158010185837    2.27236359528882    5.99075298816931
C         9.76178783541639    1.57607312682744    0.93418193169902
H         9.37150242188650    0.56059046361575    0.86163838294868
H         9.29969858392218    2.19789442753890    0.17011238209076
H        10.83939522628041    1.55660554996115    0.78431202947107
C         7.57634721388508    1.77300012921624    2.64630583680227
H         7.47346514790195    0.72520402588000    2.36084957952152
H         7.18417914253068    1.92991573983342    3.65009156004407
H         7.02447960998147    2.40954956899174    1.95480056357800
C        10.04544098995362    0.89116121863424    3.62338891694049
H         9.96113918056779   -0.05422197587628    3.08852443010402
H        11.09245646661108    1.08561675214334    3.84913304159822
H         9.48670442211058    0.81930801794058    4.55328002034114

