57
CSD_code = QAHPOG | q = 0 | S = 0 | Stoichiometry = C26H26ClN2PPt | MND = 4
Pt        4.63866967417369    2.60239883869648    8.68690932918865
Cl        6.42457148738914    1.40088183353973    7.93038046266461
P         2.73926889194974    3.73045175738934    9.13926656602642
N         3.89240353287423    2.68073429864194    6.48408130793134
N         1.71893561921836    2.10554577768327    7.06034015170619
C         5.62700365303651    2.86983536471580   10.46829440677855
H         6.69978873924634    2.89594870223493   10.26773059750838
H         5.42885635763730    2.04360990390575   11.15368482414222
H         5.33788006879166    3.81366144303511   10.94082678860375
C         2.84832616687389    1.86484982317067    6.30192905935765
C         2.85701993157382    0.88439585030080    5.29722848865251
H         2.02300027998572    0.21068160382159    5.18149901213107
C         3.93974513227831    0.81333649463083    4.45016371413819
H         3.96762159835821    0.06754364624730    3.66938177564798
C         4.98291554441319    1.72314419117918    4.59430932329227
H         5.83243791346278    1.70888711300106    3.93223646914842
C         4.92058909315334    2.62190007202686    5.63760940572158
H         5.71761127920255    3.33265464437603    5.81222709728975
C         1.06385257519274    1.00090481152857    7.73658098401341
H         1.00770682569684    0.15508716215087    7.04688218669249
H         0.04220202971336    1.30811964893634    7.97987989974937
C         1.79250964126094    0.57934286070009    8.99269977848240
C         3.12630080773717    0.17132926595909    8.92557566564353
H         3.61915892761968    0.06777843966724    7.96698403115556
C         3.78998769195078   -0.23437094299669   10.07512597905008
H         4.81553992766422   -0.56399258550357   10.00591370220793
C         3.13085729041660   -0.23643002170551   11.29317542437550
H         3.64754092500098   -0.55393838849242   12.18672094722634
C         1.80360166823744    0.15018296754844   11.36119366230197
H         1.27910293660675    0.13353350651248   12.30517285245566
C         1.14145533967876    0.56306450577722   10.21807696140822
H         0.10449628817872    0.86446742569554   10.27897790292700
C         1.59730530202986    3.39720038639271    7.67601839899256
H         0.55174828012829    3.53207565981751    7.96273454417573
H         1.85798401975195    4.15243276144569    6.92531630662412
C         1.66282165123684    3.62757681731867   10.61168540016016
C         0.31118931338843    3.95884122430709   10.61595617727287
H        -0.18357749109346    4.28639454849919    9.71187987511893
C        -0.42328693962705    3.87469044040281   11.78572259068745
H        -1.47330792542966    4.13077153606963   11.77769778611186
C         0.18138505383558    3.46722015009514   12.96296368338690
H        -0.39743214769968    3.40375753930088   13.87256929581085
C         1.52747904416378    3.14192364780219   12.96758778514964
H         2.00422079789114    2.82372033555681   13.88281335354384
C         2.26189926604115    3.21881435394308   11.79880783856557
H         3.30650918494740    2.94954084424258   11.78677246123099
C         2.98294837598999    5.52537554808464    8.94235410185855
C         2.12629228404533    6.51096179648435    9.41791805892285
H         1.24449803675022    6.24190151468171    9.98095055105926
C         2.41528116067764    7.84453724750851    9.18521174424127
H         1.74965135868436    8.60927585915567    9.55878966348409
C         3.55340892436614    8.20221048793776    8.48141048522259
H         3.77246427644944    9.24505221370650    8.30536906936015
C         4.41823275234652    7.22310752731581    8.01733542014582
H         5.31430560424312    7.50190026468255    7.48267273520918
C         4.13652891332952    5.89141261550817    8.25264294680606
H         4.81569306494337    5.10796466543701    7.92476096926514

