83
CSD_code = QAHQUN | q = 0 | S = 0 | Stoichiometry = C42H34N2P2PdS2 | MND = 4
Pd       -0.20164809084872    4.50573558046908    3.52429440006464
S         0.23756975341928    5.95122317449638    5.28220506954282
S         1.71307860521771    5.59870605470536    2.86277615600276
P        -2.18181588284701    3.86520953680320    4.47071380064315
P        -0.19937388308250    3.09480050435916    1.72801637993818
N         2.15195814173639    7.68246010664285    4.40314633352671
N         3.01190006871746    9.03535654185543    6.04507825230697
C         1.47607658980873    6.63455447489433    4.22720071450241
C         1.94629104503726    8.64402304429079    5.35039991334636
C         2.86870166741902   10.02767782166191    6.90249350161567
H         3.76833973687614   10.29829253187490    7.44262068493134
C         1.67669478861962   10.69558090561150    7.12494231307998
H         1.61638387754541   11.50067622274154    7.84113239942423
C         0.56396592283900   10.29473144051864    6.39536751294854
H        -0.39092090618302   10.78478769534514    6.53314555289036
C         0.69103322308396    9.26025561852162    5.49622946022274
H        -0.14566740574221    8.91766397534847    4.90520392300495
C        -2.04195865602885    3.83389874446112    6.28393032657165
C        -3.04363244631163    4.24544545126848    7.15267579823663
H        -3.97497695007074    4.63255374875876    6.76542838481786
C        -2.83246379275673    4.17861957479574    8.51905778250751
H        -3.60636043186034    4.50826880447286    9.19682452642660
C        -1.63233601724317    3.70189683038576    9.01953016658726
H        -1.47306413625136    3.65960072405594   10.08687014441683
C        -0.62917361984936    3.29483700704065    8.15391696168401
H         0.31247860559994    2.93873512359006    8.54477823342793
C        -0.83072003364456    3.36495491717028    6.78926607500482
H        -0.04173788962194    3.08250433746849    6.09283414782809
C        -3.11322695891063    2.34059432453210    4.12916411939511
C        -3.02999361747699    1.24738112182233    4.98538209535660
H        -2.45211950383526    1.32208974578192    5.89576167561401
C        -3.69041073733469    0.07267224936172    4.67614796635127
H        -3.62900185030372   -0.76915491205243    5.34992182838326
C        -4.42872642432284   -0.02588466113051    3.50866878189320
H        -4.94554721025577   -0.94381754323914    3.27106220139286
C        -4.50321611872715    1.05556100816176    2.64543522658981
H        -5.07509366569444    0.98245025091852    1.73173544351151
C        -3.84669003473989    2.23216961196564    2.95043725001214
H        -3.90630002534297    3.07721075494762    2.27851767608773
C        -3.36456908619621    5.18994516654498    4.07942423305567
C        -4.73471760514645    5.07918163384285    4.29835498544420
H        -5.14388743945572    4.16008827759966    4.69582400444375
C        -5.56897500222958    6.13829931459289    3.98788287539952
H        -6.63183000952676    6.05245945744781    4.16126031321237
C        -5.04637629680042    7.30635061279740    3.45575663158777
H        -5.70275233642607    8.13058298462667    3.21900618665716
C        -3.68516990380842    7.41585525338033    3.21906811380384
H        -3.28088827326918    8.32302347845740    2.79454715394569
C        -2.84558454981330    6.36041588065737    3.52519478298324
H        -1.76475859985267    6.44053188784920    3.33456451644577
C         1.30285322027569    2.97327770930408    0.71442225125801
C         2.15408054402084    1.87511342132741    0.72273205245264
H         1.92537702244742    1.01325893472887    1.33478682602476
C         3.29861612568593    1.89366059653022   -0.05521182405491
H         3.96234522883979    1.04122121008173   -0.04965602844690
C         3.59861847192313    3.00046806897511   -0.83152753095907
H         4.49832614480895    3.01097804168777   -1.42873267254373
C         2.75227724680556    4.09857618711307   -0.83626999297597
H         2.99256704234676    4.96521574256726   -1.43371212750475
C         1.60750786207980    4.08779571705746   -0.06463289453724
H         0.94489934743965    4.94444570347929   -0.04264761010145
C        -0.30322456280525    1.47538244667140    2.54488935621469
C         0.45883766704241    1.40028920584231    3.71453263031058
H         1.07301567663464    2.26639719747969    4.00437596369193
C         0.45299028576370    0.24649789177297    4.47325688744610
H         1.04496392235609    0.18389453413330    5.37465045873410
C        -0.32135295787965   -0.83377220088560    4.07454500302417
H        -0.33179152215927   -1.73564921036096    4.66826386630157
C        -1.08486698955085   -0.75698737076181    2.92277164064155
H        -1.69128713519719   -1.59780811349972    2.62000765168176
C        -1.08090111666919    0.39571682067088    2.15420631180902
H        -1.69138172007508    0.45757417256375    1.26533393024566
C        -1.48669352512915    3.18203331187288    0.45322874891845
C        -2.40072328085808    4.22621584482642    0.54043634079861
H        -2.30983042259476    4.93380466023413    1.36210727460686
C        -3.39413133847922    4.36163508634856   -0.41261049463284
H        -4.10542011820103    5.17171224058901   -0.34238090274324
C        -3.46932612506002    3.45590056878104   -1.45832395911259
H        -4.24539435615207    3.55572608160275   -2.20265797558200
C        -2.54040442034039    2.43148877751819   -1.56433014595599
H        -2.59198312003479    1.74174315676066   -2.39406859762878
C        -1.54207483171442    2.29564007694893   -0.61717634475023
H        -0.79687489971866    1.51759709552868   -0.71000506969856

