48
CSD_code = QAHTIE | q = 1 | S = 0 | Stoichiometry = C21H23ClNRuS(1+) | MND = 9
Ru        5.45159461143858    1.27385851441072    5.06984711145413
Cl        6.56370480350267    1.71470951776914    3.06580359608002
S         7.46790480063417    1.49277248564772    6.31628651272855
N         5.15278454770011    3.25996456039344    5.24140056630254
C         4.67742404021277    3.88650972719320    4.15909837809246
C         4.44948553569997    5.24754482950436    4.11010746446214
C         4.73070466018458    6.00917993719662    5.23415078018960
C         5.18114588664145    5.35905110048404    6.36708185489141
C         5.37063342299995    3.97515387912064    6.35915553904137
C         5.77268511662744    3.32145793895208    7.62321024210218
C         5.18349548363480    3.78267169795947    8.80487433139766
C         5.52522892122241    3.26001891249551   10.03775247169448
C         6.48015942083230    2.26023765972403   10.12654531886716
C         7.06441636456718    1.77672829470605    8.97045386503619
C         6.71412339077968    2.29163041298454    7.72805752960920
C         8.88332417271628    2.62537652136438    5.78870572352662
C         8.35456235401450    3.90525497320578    5.17642360485922
C         9.64027009344970    1.78488691488354    4.77351980431684
C         9.71017997425518    2.88260500778995    7.03708765804629
C         4.82360154133653   -0.38093302312458    6.54044705781055
C         3.76691038591926    0.53419376946084    6.45321248192339
C         3.19626200786015    0.82649619462244    5.18813409065429
C         3.68443640578920    0.20328245006325    4.03099304454552
C         4.76176903704561   -0.71439354519105    4.12885456823422
C         5.32009785321332   -1.01731879790574    5.37465015100372
H         4.50058312818860    3.27090659281967    3.28397801902927
H         4.07421156402060    5.69546335342181    3.20522352590258
H         4.59784977494162    7.07904271961705    5.23063630657306
H         5.41483474707730    5.91728867039396    7.25947210404543
H         4.42569914045672    4.54913291171429    8.74838727425165
H         5.04616247990359    3.63511932141043   10.92823487249654
H         6.76165949861262    1.85408386193731   11.08486856205554
H         7.80005134289073    0.98882443529322    9.01731035336389
H         7.66675283902916    3.68171566622234    4.36087126806158
H         9.18957562110002    4.47056193321226    4.76691964354150
H         7.85929300638011    4.52696878895197    5.91918157264165
H         9.00658058644238    1.56168371312368    3.91836154855463
H         9.97926887315479    0.85134174410986    5.21648687894032
H        10.50990289586543    2.33365699848841    4.42087195884238
H         9.15132228032529    3.45241684184152    7.77667055503513
H        10.59335288591133    3.45526367650845    6.76344821803139
H        10.03948952706422    1.94928777156166    7.48672891314344
H         5.21667300223393   -0.66017058507343    7.51205620435625
H         3.33439203025394    0.95454256349914    7.35324476627117
H         2.32782471529711    1.47536600088157    5.12924850352492
H         3.20479367271235    0.37133460652217    3.07319815879271
H         5.10581628075667   -1.22981970511444    3.23906276867189
H         6.08800527510345   -1.77805181505368    5.45948427700319

