55
CSD_code = QAHTUQ | q = 0 | S = 0 | Stoichiometry = C24H20CdN8S2 | MND = 6
C         6.26955804421583    0.94846585532700    5.58841507218170
H         5.54493237969660    1.21103043208755    6.36104277841021
H         7.13689714192825    0.47617461078380    6.04747916032937
H         5.82144253776072    0.23645958130570    4.89628255668772
C         6.67047187917920    2.17824374747604    4.86053957574081
C         7.59035559731384    2.32472024499157    3.80092271188871
H         8.16372422399581    1.55219159341367    3.33020686085653
C         7.58660462391977    3.65785104498160    3.47428765904476
C         8.29917861989357    4.32601477273944    2.35882233238706
H         9.10961414318472    4.96212817996195    2.71447616764821
H         7.59997685832902    4.92133063179341    1.77229653408565
H         8.72793745953019    3.56305859855656    1.71415612930560
C         6.24296800612309    5.56914003782144    4.41562848724949
C         6.92981190385737    6.69806050075551    3.92108855035404
H         7.87221754050168    6.59700108195338    3.41406341387176
C         6.38940375685301    7.94278590051385    4.12361397741217
H         6.90660254127706    8.82269046934118    3.76900828013760
C         5.16307160522469    8.08669408224764    4.80151907783839
C         4.54997554386265    6.89310133718371    5.23255849365968
C         3.28019715854579    6.94585020652660    5.89719924433177
C         2.69621027817177    8.19467938473884    6.18992305188311
C         3.35671468575337    9.38201156593547    5.76794432902979
H         2.89548111638117   10.33199149103793    5.99490385500438
C         4.53152580131614    9.32941113482902    5.08592246032725
H         5.01484178778537   10.23651101680856    4.75381948487816
C         1.46764776319615    8.15737962248519    6.87796349734488
H         0.97195983748988    9.08370140686836    7.13030181368376
C         0.89812428273830    6.95665011833713    7.21894769093414
H        -0.04571612548827    6.93591025420919    7.73285968356273
C         1.55737713582653    5.76310556648034    6.85607275861619
C        -0.52627695661814    4.81005279236319    9.03660626952233
H        -0.97449858110205    4.13551355230087    9.76161672225456
H        -1.32029399656328    5.42157814842633    8.60824776006746
H         0.18685441449035    5.45051529153409    9.55488779624442
C         0.17074391437014    4.00293420279253    8.00649229341379
C         0.13675133253328    2.64161760152113    7.83459143220195
H        -0.45315023929859    1.94101501126879    8.38982889643532
C         1.05187537061613    2.35424719286332    6.79999270127848
C         1.42354161485591    1.04049751378393    6.21791024644312
H         2.15319624280234    1.19625215894139    5.42148316778879
H         0.54494464131493    0.53916926199887    5.81437983367652
H         1.85568559345368    0.40190052852786    6.98749319252673
C         4.03214339665732    3.90071931156334    2.81778905284465
C         3.72929256874569    4.23499767532525    8.63821563267157
Cd        3.87892219265505    3.80243504978125    5.74232961616066
N         6.15010920961525    3.34777761933844    5.15848517936581
N         6.70422353255004    4.26092134517493    4.33111129934817
N         5.09932281557641    5.69319407684217    5.05799783101722
N         2.70275994394295    5.78665822280032    6.20531570707402
N         1.06551814189625    4.48408648584119    7.08759333513193
N         1.59810676342559    3.47000943238005    6.37094479266444
N         3.56922905346705    3.32781549224451    3.73624890757090
N         4.17958161872346    3.55383632895784    7.79009737264511
S         3.09950706220311    5.13717981217909    9.78230501472589
S         4.67950222130533    4.65483141972054    1.58017025825629

