45
CSD_code = QAHVAY | q = 0 | S = 0 | Stoichiometry = C20H14O10Zn | MND = 6
Zn        4.73836645631127    3.53292064207728    5.17967650915317
O         4.15128977986673    5.07019722355140    8.77997342690736
O         3.56271826183070    2.13802045134622    6.39998364350689
H         3.11708780270369    1.61672304860950    5.72155176006285
H         4.31108611799924    1.60936652515407    6.70787101962809
O         4.98014419862064    4.82959999924294    6.77059389553939
O         1.36488835532144    5.64909848913129    5.01168104903184
O         3.27497279750019    4.57355156600343    4.69449856572889
C         0.78009097907747    5.58818224489828   10.12772281308324
H        -0.23433845626352    5.69771851589797    9.77602108766947
C         1.07396977201271    5.63741794111103   11.46973625966196
H         0.28541557027901    5.78646026565713   12.19115002512683
C         2.39087580314940    5.49608398230157   11.90711479839939
H         2.61088448075564    5.53620622083768   12.96280512206622
C         3.41493398247703    5.30630051935836   11.00475782884553
H         4.43881192580211    5.19513982549314   11.32340240909586
C         3.12396776593928    5.25461681714890    9.64233393336854
C         1.80132445654752    5.39519507434966    9.18732694565662
C         1.58970934293282    5.33995268772535    7.77859168185466
H         0.59742935291913    5.46723279610181    7.36873993721904
C         2.62825402762790    5.14011310556361    6.93013433525333
C         3.96594444678397    4.98882110296594    7.44652977083941
C         2.38073414836391    5.12059312226134    5.41639724361246
O         5.32868109593591    2.00325133355936    1.57828821643295
O         5.91381706585609    4.92839900903257    3.95878422833031
H         6.35868763221288    5.45019748938212    4.63731382170412
H         5.16507530251906    5.45631672330133    3.65056865717512
O         4.49798537539922    2.23749896499454    3.58771228183698
O         8.11202052428538    1.41721313013135    5.34776355693961
O         6.20165823437861    2.49227635630015    5.66520007260407
C         8.70167441096903    1.49310500017287    0.23197436322918
H         9.71588899943993    1.38349385117051    0.58427823218106
C         8.40910615179839    1.44801254529253   -1.11047098511276
H         9.19849439930571    1.30223136455485   -1.83164103433623
C         7.09245978939905    1.58941742152476   -1.54859719780434
H         6.87349134534575    1.55266594297951   -2.60462616885429
C         6.06734736630793    1.77506475300464   -0.64657177284515
H         5.04366124880918    1.88620791577676   -0.96583753663556
C         6.35698394442175    1.82258458939168    0.71628821969164
C         7.67936871992456    1.68196351487622    1.17203248669575
C         7.88973189512379    1.73334384658544    2.58110305253836
H         8.88181868352949    1.60615454079654    2.99143533463434
C         6.85025834734733    1.92982033267105    3.42918425201137
C         5.51283517042383    2.08113383467049    2.91208583479375
C         7.09649292871151    1.94643537304177    4.94313802348029

