56
CSD_code = QAHVEB | q = 0 | S = 0 | Stoichiometry = C17H29ClN6P2Ru | MND = 8
Ru       10.78330936352985    6.79589045008178    3.54895572972563
Cl       10.35871672934931    7.10723454214397    1.21964826766379
P        12.40489726730849    8.28493200884241    3.01553885665603
P         9.13911204831816    8.29389693845723    3.93899803090872
N         8.10411908434234   10.44936841343587    5.34028605066590
N         6.55212539829555    8.63339448244079    4.87703406797637
N         7.24660362303355   10.12018092939607    3.08745790522917
N        14.71281959802573    8.64656630259439    1.53617451546216
N        14.61610425004489    9.81473103254465    3.66845619728984
N        13.28813327996467   10.59759994407563    1.78680519075983
C         7.01460972169264    9.62351901809040    5.83495284049730
H         6.17303341855419   10.28140304501434    6.07442674901589
H         7.33916159216085    9.11436318556896    6.74672893133251
C         7.55203485511937    7.61280609358405    4.63857002979723
H         7.15030556305869    6.87924175183614    3.92812997752642
H         7.76660476244175    7.09920975381697    5.58389823682396
C         9.32098366038504    9.68032988085851    5.17412658257823
H         9.61076058157747    9.25229861521975    6.14174054985626
H        10.12643827913896   10.34894604365763    4.84528606866357
C         8.33760002723993    9.30331937753139    2.59550232705925
H         9.09336318987400    9.94490404248919    2.12769801164045
H         7.96782555453859    8.61282176645347    1.82832388137155
C         7.69157846084471   11.07104949683344    4.09028993130091
H         8.52682994443632   11.65046081710805    3.68796225434578
H         6.85981519186287   11.74819380091324    4.31046415428202
C        14.04414045267515   10.95722264613464    2.97381688367795
H        14.86673978363460   11.61155685138253    2.66751686444514
H        13.39252308165738   11.50237212674603    3.66250740813408
C         6.17814980796770    9.31030685152260    3.64446482727253
H         5.32952755181671    9.96642303531632    3.86352399476653
H         5.87329983586031    8.56450236488242    2.90620661754566
C        10.74901905860375    4.54502736042357    3.36893653737174
H        10.53238180440608    3.96814543962582    2.47944613882479
C         9.80749816430654    4.94372795883121    4.34259666314763
H         8.76894442043923    4.64392243402450    4.37765852286979
C        15.43069009099191    9.05836293623465    2.72947349677176
H        15.82502356866171    8.17196848487298    3.23432414771549
H        16.26700232078741    9.69423162121713    2.42140087211039
C        13.69907727348977    7.65631760804367    1.83733467035565
H        14.18401416001449    6.77576305442317    2.27772355816069
H        13.19351116085727    7.35178216669967    0.91289419699773
C        13.58998525416077    8.98814810068062    4.27189858355456
H        13.02868390793382    9.58511449014784    5.00079046848473
H        14.07183839543033    8.16175153910348    4.80767626916280
C        11.89312600010650    5.60048753499080    5.05703086823229
H        12.70466824072920    5.90202960191191    5.70690125336196
C        10.52252679506385    5.59144706692225    5.39902902778613
H        10.10948859830921    5.87733680413408    6.35822236488316
C        12.07344906476224    9.88203275510320    2.11900384749539
H        11.52377858210133    9.64458150688476    1.19996265776249
H        11.44508069600757   10.52208885406525    2.75301787523470
C        12.03402876972605    4.96556547349339    3.78477272340021
H        12.96918733311205    4.67740515104992    3.32369552662023
C        14.13857799947829    9.81996307768434    0.89943833841003
H        13.55281242379597    9.50400421326789    0.03320710975903
H        14.95993995797476   10.46284915719257    0.56677234725973

