63
CSD_code = QAHVIE | q = 0 | S = 0 | Stoichiometry = C26H20FeN14S2 | MND = 6
Fe        0.00028566965234    5.12180079224742    0.00212235920598
S         1.64929029090866    6.82066894817751    3.73085898500774
N        -1.75283913321337    4.32528732721043    0.38227510616460
N         0.46144696335249    3.19345989411630   -0.37426599847831
N         0.53901159934516    5.10007926788874    1.87173633335866
N         1.44993652490438    2.53330560663291   -0.95479426366239
N         1.00693146416822   -0.56956823632505   -2.76672222514042
N        -0.40148370401209    1.40000187590189   -1.27746684042881
N        -1.31831025331674    0.48603587927137   -1.74586145479606
C        -2.82049796883680    4.93704021142891    0.88518138310559
C        -4.05632624050291    4.32355196001756    0.99367957575420
C        -4.20554469017044    3.00924260978602    0.56738317082390
C        -3.10480954223020    2.35553762236123    0.04468131541398
C        -1.89866211765733    3.04448232293526   -0.03284707442184
C        -0.66775909508719    2.50406048963731   -0.54129324441770
C         0.94362624534947    1.45136787618972   -1.51689996834695
C         1.68140075913274    0.48212191415251   -2.29424629935207
C         3.04348617948990    0.67163618546668   -2.54303394940689
C         3.70781453109079   -0.26751783345441   -3.30703791574888
C         3.00245565831161   -1.35843250266762   -3.79973652391244
C         1.65370327845373   -1.45750805365599   -3.49923120549205
C         1.01641630517684    5.81802743809634    2.66975251373692
H        -1.96373574680262    0.95741513223105   -2.38352427395528
H        -0.78510913240369   -0.23101295228449   -2.25548579141138
H        -2.66827682034072    5.96196807087918    1.18989306895805
H        -4.89180450900561    4.86827939611043    1.40376448683226
H        -5.15807826959853    2.50750971097241    0.63943828044592
H        -3.16032380846914    1.33248151766251   -0.29144904385360
H         3.53472497330718    1.53899754370506   -2.13505905887150
H         4.76067661782959   -0.15509661848700   -3.51988754154882
H         3.48630438836624   -2.11152062802360   -4.40085928841340
H         1.05530759597773   -2.28510395229849   -3.85677356256135
N         1.75410674613673    5.91835144967198   -0.37770227467360
C         2.82260144602352    5.30559485281143   -0.87749184726746
C         4.05855720885352    5.91901997621223   -0.98526145952110
C         4.20676138598333    7.23437520895993   -0.56191998297967
C         3.10507016770637    7.88910369150799   -0.04250975493976
C         1.89900731337224    7.19998993326893    0.03495072102206
C         0.66758116960561    7.74067830087511    0.54185006569516
N        -0.46095077145161    7.04963178476387    0.37724379330672
N        -0.53781116701667    5.14489392369272   -1.86724274017131
C        -1.01341191482069    4.42849884545819   -2.66767531582559
S        -1.64486106664671    3.42848062915715   -3.73217019146557
N        -1.44983004473190    7.71011311403995    0.95670318397494
C        -0.94442489094586    8.79408131354130    1.51568775070492
N         0.40047722834772    8.84637429444740    1.27527834230264
N         1.31657717726593    9.76256330152069    1.74072225053862
H         1.96247665408405    9.29374605254625    2.37978108112221
H         0.78283636953438   10.48089214079484    2.24795975619921
C        -1.68272811707142    9.76455416203030    2.29100548732722
N        -1.00944851726495   10.81925805582580    2.75844922490821
C        -1.65661447878247   11.70861361187803    3.48889102551922
C        -3.00458344917981   11.60791893681792    3.79234950695947
C        -3.70865745445063   10.51373839230448    3.30508187446195
C        -3.04393521089881    9.57318136147954    2.54314518375331
H        -3.53421535527808    8.70333957002543    2.13931940284341
H        -4.76083429533670   10.39989039925434    3.52054266289040
H        -3.48879478949739   12.36224162991993    4.39162676636530
H        -1.05920740784916   12.53874277542288    3.84218853132931
H         3.15986719044008    8.91295223883947    0.29128772913475
H         5.15932579343622    7.73612346260968   -0.63350687521680
H         4.89486498757798    5.37342976627906   -1.39249622536086
H         2.67094007967626    4.28002800814832   -1.18037872752834

