23
CSD_code = QAHWIH | q = 0 | S = 0 | Stoichiometry = C8H8Br2HgN2S2 | MND = 4
Hg        6.63719973673071    8.68138942656180    8.38596306209659
Br        7.65181055074173    6.83597606167002    9.60316772899768
Br        4.95468884126970   10.31032082204038    7.72655270940710
S        10.78417875351776   11.46858961972905    7.94989919152145
S         7.99996115538197    7.63225946043507    3.69454068767976
N         8.70716919297620    9.99880963732406    7.96668010762057
N         7.51942679784356    8.25716604127123    6.11247139528119
C         9.37323226327631   10.81065207185210    8.72049504470614
C        10.40608147947024   10.56973387537373    6.54141588140834
H        11.03230265967859   10.62266371289095    5.67537304726548
C         9.26614855533619    9.84118829959022    6.72725194195519
C         7.06330843628989    7.52207698462033    5.15076968753926
C         9.04517903726756    8.74176309364179    4.47591749632725
H         9.88067601616711    9.16396890533340    3.95763184351908
C         8.63829190315527    8.96098036573524    5.76141395528948
C         8.99305058984416   11.18719227655929   10.09910328119837
H         8.38006541161931   10.40268257822362   10.54483394186367
H         8.41154746548889   12.11031277750890   10.08501639879976
H         9.87665356211098   11.34768413955695   10.71187771896057
C         5.85516143982221    6.67398779860981    5.24635167594717
H         5.90249882083870    6.05620790156822    6.14440402841052
H         5.76335423117241    6.03432794136310    4.37318369335219
H         4.96701309992735    7.30486620855044    5.31788548087070

