23
CSD_code = QAHWUT | q = 0 | S = 0 | Stoichiometry = C6H9ClN4NiS2 | MND = 4
C         3.16643645562192    6.61110729218882    0.75506516095909
C         2.77290164477659    4.74844807250909    2.06729481770411
H         2.69944248358583    4.82565853359228    3.15699148818435
H         3.21109600080692    3.77157322187245    1.83940880104303
C         1.39272606131960    4.91281017972789    1.40030634517541
H         0.59953249733582    5.09273778747231    2.12372619015596
H         1.12457800670039    4.05788231218611    0.78193192138967
C         3.99560279595910    7.66567234077297    0.24571611655353
C         3.53896142283160    8.69217345089521   -0.73210958630203
H         3.77774808208756    9.68514408264152   -0.35368842485360
H         2.47027410988381    8.60727154822375   -0.90694075208796
H         4.07238347277460    8.56638160172107   -1.67412720113804
C         7.27656455652828    8.38615952085188    0.92328987118820
Cl        5.94339970093799    4.76662685187732    3.21305551971881
N         3.66618282705123    5.77051239960568    1.59817891862161
N         5.21056964864588    7.63055275131766    0.73335343666850
N         6.09950753110751    8.54602120683555    0.35632550691895
N         8.27214493117025    9.23602564520695    0.64053450183657
H         8.11971427501227    9.99299490788529   -0.00203926257456
H         9.16874519750684    9.10633284894467    1.07332011499591
Ni        5.57622547610684    6.25644570018503    1.93237736082430
S         1.49665828198318    6.37587344593371    0.31142924104424
S         7.60010454026593    7.09989429755271    2.03779991397402

