36
CSD_code = QAHWII | q = 0 | S = 0 | Stoichiometry = C12H14ClN5ORuS2 | MND = 6
Ru        1.21130022831338    1.87199569416964   13.60868779335950
S         3.57827987663720    2.74429458453365   13.61620530430917
S        -1.08097229462864    0.81834618118863   13.56487659479395
N         0.57922070108974    3.38425365215443   13.93271229845484
N         1.90600987858549    2.37654236531738   11.73465973064957
N         4.08186742904273    2.91968332694765   10.98833880979243
N         0.64615422875480    1.06069285145057   15.41696833560376
N        -1.17705001397897   -0.33136839961382   15.98557363035587
O         0.13664704434163    4.43187876016550   14.15614866256264
Cl        2.05347680197144   -0.15276075506978   13.17337632370044
C         3.20568555845837    2.68962883338579   11.94565934552857
C         1.46187334427538    2.24190857100103   10.48604186886320
C         2.34034057122383    2.47387622844229    9.43655869256299
H         2.01014479092465    2.38096904388166    8.41520414162755
C         3.66273057306081    2.81702266471026    9.73553556448751
C         0.04132575272181    1.83979117178208   10.30743774049358
H        -0.09458690326549    0.82636849988829   10.68947993296971
H        -0.25003708139541    1.87102101665213    9.26215370090548
H        -0.60828563296597    2.49104808990695   10.89354108804470
C         4.66647861621536    3.06779955551414    8.66425525864424
H         5.60054001930212    3.39353554167313    9.11073898463528
H         4.30191231084239    3.82618965275271    7.97442708623749
H         4.83848181500841    2.15334777245219    8.09864168303763
C        -0.53204227629664    0.45188641540046   15.14525922999743
C         1.24348275961986    0.83274803226913   16.58512642293995
C         0.60815560329498    0.01697207439916   17.51203509532914
H         1.06264419300898   -0.17999019952121   18.46878074704185
C        -0.62285593491480   -0.55035377601874   17.16997849985195
C         2.56856321790995    1.46918306385697   16.80949476478278
H         3.29392348267782    1.03820298450304   16.11692564036479
H         2.91244777459952    1.31855245724819   17.82807011911055
H         2.51335929023959    2.53610448049138   16.58987416741400
C        -1.37679365382917   -1.41972334890514   18.11536162092862
H        -1.92730469620055   -0.79297782407091   18.81689419732951
H        -0.70030042994259   -2.05395777801547   18.68289486647322
H        -2.09031694470266   -2.02481148492554   17.56408205681610

