73
CSD_code = QAHXUU | q = 0 | S = 0 | Stoichiometry = C26H38N4O4Zn | MND = 5
Zn        7.53764665027903    2.32219982111477    0.14845102340177
O         6.50584085546786    0.97417066716916    0.95618363419193
O         4.67095363278447   -0.55465250459662    1.93004991638173
O         7.46788439845957    3.43982706609966   -1.34982039835941
O         7.34572738494695    4.19975198768161   -3.83247272265131
N         9.19384508830793    1.89753276232116    1.10217082917857
N         8.42209574093395    0.81151654696438   -1.37231674500093
N         6.89739440712268    3.92430245780517    1.32122092549244
N         4.20050648312860    2.64266844922018    5.25111831453257
C         6.83534454373572    0.35148949527398    2.02353868803466
C         5.84886682769565   -0.51700067832281    2.62300371110823
C         6.10637356268259   -1.20964573796993    3.77645865677998
H         5.35793464583325   -1.84993839506159    4.21838262642348
C         7.35572598767765   -1.10138043038856    4.40587693378710
H         7.53590752046565   -1.64913385668357    5.31830518445083
C         8.32892416384337   -0.32320486285506    3.85371588255442
H         9.29922562232375   -0.25195996379123    4.32585414854265
C         8.10841704617525    0.40953022604715    2.66392356580335
C         9.22050346967043    1.10307043654343    2.11121497837584
H        10.18857488443823    0.89916365902234    2.59113855391192
C         3.68102784997033   -1.45775696531058    2.34554850566089
H         2.87400277471015   -1.36562425985284    1.61988418851915
H         3.29619515149298   -1.21247878307269    3.34160257994954
H         4.05144565426061   -2.48923802043192    2.34597757855832
C        10.42819242235390    2.32478183238626    0.50323234706768
H        11.25143998222423    2.31462655857839    1.23402284465551
H        10.28909820938531    3.33972875959865    0.12572134039272
C        10.78760276814989    1.39406055862475   -0.66314286446553
H        11.71588709224083    1.75523005178774   -1.11203617495163
H        10.97923502457228    0.39370286932520   -0.26902510423255
C         9.73237895046923    1.33632217933590   -1.76842688747401
H         9.56071613621618    2.34601731686244   -2.14529274797768
H        10.14248788742840    0.72127632537358   -2.58929827465220
C         7.55251182379744    0.81574720494888   -2.54707296412943
H         7.93562865572489    0.14028938569987   -3.32597564681765
H         7.48473062825559    1.82436218000961   -2.94446765725063
H         6.55771019831411    0.49124008601552   -2.25017595368381
C         8.52002456066592   -0.56184645570319   -0.89489400873944
H         8.99634898713280   -1.21293033469023   -1.64256549491445
H         7.51878785419643   -0.93369515453393   -0.68948134846652
H         9.08602652913795   -0.61346442273176    0.03171453150976
C         6.91845693311010    4.58175778948330   -1.55103778881476
C         6.83028546807525    5.06692469559602   -2.90197562885632
C         6.27075916181151    6.28689751753322   -3.18146321965965
H         6.19885414515535    6.64644810247831   -4.19655450958423
C         5.77878035710790    7.09593535263569   -2.14717501798123
H         5.34382729246429    8.05312205097496   -2.39120574044671
C         5.85289990084943    6.67180162330935   -0.85224220509378
H         5.47416288828584    7.29301250866423   -0.05270290997908
C         6.41304375441726    5.41853539224487   -0.52463742058000
C         6.46329562796679    5.03629445836683    0.84401742640168
H         6.10324535309689    5.79942494276014    1.54639375031743
C         7.27852495175040    4.56692871212399   -5.18494767764075
H         7.72962711416960    3.74465494999083   -5.73925757817776
H         7.84070888737549    5.48644433831012   -5.38305941726943
H         6.24267480289601    4.69985705457490   -5.51629719610074
C         6.83768532181598    3.77200126176765    2.75925673696525
H         7.03056732893802    4.73425564565776    3.25436264941572
H         7.61285738629045    3.06400345349065    3.05759410319556
C         5.47645545890969    3.23658260618775    3.21395887373206
H         4.70914900163450    3.99835601972777    3.06466130860615
H         5.22377658003222    2.37459363000495    2.59902260295742
C         5.52522331368279    2.85944472194237    4.69366020760776
H         6.17392358144649    1.97368912744420    4.82515172562180
H         5.97695282384828    3.68939229133494    5.24610687541232
C         3.60408870242167    1.41614751669565    4.76543616075893
H         2.59630508416591    1.32753212559424    5.17073976489145
H         4.18632095385076    0.52849246289780    5.06253086641460
H         3.54107198079605    1.44727624772275    3.68104179530729
C         4.23054628142810    2.65460373335979    6.69876184230900
H         3.21540528105634    2.53532133763956    7.07535768589069
H         4.61660622415428    3.61255591497155    7.04474034342059
H         4.85674599994587    1.85095435704217    7.11941509545154

