58
CSD_code = QAHYAZ | q = 0 | S = 0 | Stoichiometry = C27H29PZr | MND = 13
Zr        0.78770611836527   19.46240592614081    9.01686750414607
P        -0.19904731154246   18.82522048666628    6.56907627700882
C         2.31202125937473   18.03469246261901    9.73301415056905
C         1.66385158926178   17.45389766665764    8.52634412230047
C         2.55781919117669   17.22191285866419    7.31316813627879
C         1.76852137087758   16.89290669378144    6.04184406704727
C         1.09626185104710   18.12219580310893    5.43552295752927
C        -1.46875553217682   17.53031268324334    6.26892638651401
C        -2.23594486122985   17.51336472541682    5.10741975315960
C        -3.14958489519328   16.49777602832830    4.89071837739335
C        -3.30273367620884   15.48549923942068    5.82378393876645
C        -2.53780354934830   15.49219731104802    6.97872438574453
C        -1.62652034722689   16.50924589912853    7.20031503659686
C        -0.91511434224011   20.16475451287703    5.53417823493415
C        -2.05404101099898   20.77768206132466    6.06159933159434
C        -2.63304451628060   21.85989519491056    5.43066148482356
C        -2.06734029726414   22.36701627766664    4.26972662216739
C        -0.92719702761677   21.77994021203174    3.74888258945800
C        -0.34963900855942   20.68872606151339    4.37561849501572
C        -0.95047140105836   18.11974307622464   10.36701553335325
C        -0.23185271260924   18.90409865704031   11.29128123487952
C        -0.51479830451651   20.25776864024846   11.02481380731585
C        -1.39900893244556   20.31347612561849    9.92721708128305
C        -1.67007801727015   18.98895397944603    9.52181740576614
C         1.26502410027412   21.93213669340921    9.27617635235497
C         0.87469318563594   21.78467306038778    7.93278533227081
C         1.87958645827113   21.04761693668858    7.26922779226761
C         2.87687614311428   20.72721043313768    8.20691784834302
C         2.49061253056289   21.25703744468683    9.45772765429492
H         3.37296611592555   18.28350605916156    9.60792211378781
H         2.14548387859901   17.47397429354084   10.65998008395533
H         1.08985939286786   16.53964064146787    8.74499639935086
H         3.18247198255014   18.10442318431453    7.12836375090337
H         3.23560564848689   16.37849643578239    7.51426212792341
H         2.44627828741942   16.47012627733395    5.29369549215216
H         1.01371739011327   16.13304935749129    6.26737942063692
H         1.85798620400039   18.88310116681642    5.24776548921052
H         0.61190428145472   17.85773565013740    4.48820189844630
H        -2.12365956805474   18.30045380771390    4.37476440526987
H        -3.74386638284662   16.49537981620531    3.98849969242704
H        -4.01698271267128   14.69419005954382    5.65122808398561
H        -2.65421198508254   14.70463244528810    7.70886750523304
H        -1.03062498374828   16.52747870072969    8.10295344092200
H        -2.48467177148901   20.38356817864437    6.97505421061406
H        -3.51991657744046   22.31769986342354    5.84441101176029
H        -2.51104809880363   23.21963142112658    3.77784739213043
H        -0.48155786388434   22.17505526264875    2.84729410012804
H         0.53701868547774   20.24518170045137    3.94748699541451
H        -1.03702220372843   17.04083440014768   10.39931590987838
H         0.31982942856941   18.53239286019016   12.14597907737488
H        -0.22082160502400   21.08908753795770   11.65425147734638
H        -1.89023452062586   21.20515294529490    9.55222518794259
H        -2.42498385461223   18.68619065212141    8.80461785614254
H         0.78280943990735   22.57475416163013   10.00207140905571
H         0.03474508262173   22.27670635038190    7.45499479686928
H         1.95286109007931   20.92100613706863    6.19685756025704
H         3.83430854026494   20.27218630926671    7.98501436957057
H         3.09935862550104   21.27090717268177   10.35542684813394

