73
CSD_code = QAJBUA | q = 0 | S = 0 | Stoichiometry = C36H30CdI2O2P2 | MND = 4
I        12.12432039057647   -0.99548789790562    4.78053408940647
I         7.51308507545742   -0.58199337903854    5.47595439667337
Cd        9.62813101961240   -0.75956585124874    3.85709837363474
P         8.78968117801685    2.24062227536682    2.84096228317573
P         9.53946136016838   -1.66108381157106    0.76662781410759
O         8.88693831516320    0.85011588811499    2.31254465103463
O         9.39606992999431   -2.20153935343096    2.14279147472255
C         9.07826585946749    3.43891727481867    1.50295664477063
C         9.87516503506867    4.56793573061199    1.61342042769492
H        10.39358817530483    4.77720055224689    2.53828328824043
C        10.00796527416550    5.42042151820240    0.53011954548613
H        10.63499336829976    6.29606789415198    0.61126129426873
C         9.34036864028850    5.15371336062075   -0.65377559734778
H         9.45138035997300    5.82001843071202   -1.49634069129179
C         8.52425371379848    4.03768339125875   -0.75712285537062
H         7.99375774231609    3.83618778507029   -1.67618466399140
C         8.38921996785797    3.18551147771663    0.32247512386226
H         7.75188944360350    2.31191747848300    0.26617229790877
C        10.03211516904068    2.52893235478736    4.13381894808973
C        11.36378937225054    2.54995090072864    3.72649038375252
H        11.59899323005177    2.44732040560829    2.67280762389495
C        12.36847813381485    2.68738262097218    4.66655820098928
H        13.40156397427947    2.69283387381067    4.35458445804791
C        12.04608502509391    2.78639383127050    6.01124842518043
H        12.83243888577444    2.87272853745393    6.74499870810868
C        10.72198958389588    2.75123643595313    6.41767270368083
H        10.47453672666040    2.81100872053251    7.46664748344215
C         9.70835775466432    2.62633360209423    5.48207464139398
H         8.67336543435483    2.59940069906607    5.79601773138066
C         7.14622200914193    2.69570966884828    3.44423793258556
C         6.95324309486026    3.91943672795219    4.07425903365181
H         7.79602657287659    4.57750436896895    4.23640666267509
C         5.68575678562094    4.27710756470645    4.49260307456036
H         5.53084157768756    5.22048904044335    4.99452074975902
C         4.61552209702815    3.42319587216883    4.27250204264409
H         3.62878707234990    3.70312317995824    4.60957988844918
C         4.80650239727693    2.21505630130675    3.62343653422263
H         3.97130955643437    1.55274198458130    3.45458064056545
C         6.07307382173260    1.85133497675671    3.20386486978634
H         6.24701780264729    0.91047158096518    2.70369739790648
C        10.92129682017885   -0.48400228383981    0.61903183937131
C        12.12999283530729   -0.94616766397264    1.12964379232410
H        12.18724082924590   -1.95087312026226    1.53069443034352
C        13.24321896103854   -0.12530917634517    1.12976464209106
H        14.17225395300581   -0.47995080914283    1.54890358953878
C        13.15196191885472    1.15599719321447    0.60963913132283
H        14.01575775711795    1.80447856964187    0.61924910503437
C        11.95409824441418    1.60893455618547    0.07848408786182
H        11.88140538589102    2.60753456514192   -0.33035315026309
C        10.83750007021796    0.79023488891646    0.07777950494787
H         9.90371778738155    1.15218565055620   -0.32453455602584
C         7.99236118558681   -0.95124131700993    0.14168360583217
C         6.86587499743815   -1.04532901484797    0.94715892106293
H         6.94752479017402   -1.52046972695540    1.91637587065899
C         5.65684009074561   -0.53462163998878    0.50806262780832
H         4.77938566595612   -0.60747173757905    1.13386651445084
C         5.57430281283515    0.06916900582938   -0.73599052209290
H         4.63427814915001    0.47822540182288   -1.07576130487066
C         6.69298123715552    0.13868015656181   -1.55222820622691
H         6.62152928636458    0.59470661224009   -2.52914384999953
C         7.90082634899963   -0.37965907526182   -1.12121886159839
H         8.76840413935083   -0.34801626027250   -1.76483467028346
C         9.94986200059626   -2.99800533594519   -0.39253676518250
C         9.54903826545092   -4.28357591911342   -0.05768378566539
H         9.04108923887827   -4.44519390704918    0.88271734785051
C         9.81676211792890   -5.33599295466964   -0.91429708833775
H         9.51016395930553   -6.33793341022127   -0.65242878359961
C        10.48149442741680   -5.10139610500588   -2.10678296426366
H        10.69276531901080   -5.92180497680563   -2.77649287324471
C        10.88381257452870   -3.81762163936346   -2.44077842649665
H        11.40884766157742   -3.63982399740840   -3.36785869452000
C        10.61891973100207   -2.76337993834580   -1.58585274724200
H        10.94464051139053   -1.76244260404262   -1.83396379205171

