53
CSD_code = QAJCEJ | q = 0 | S = 0 | Stoichiometry = C20H28O4W | MND = 8
W        -1.66729373908790    2.19240231833133    2.61698067498280
O        -1.16955080349783    2.00927856450477   -0.47010462661437
O        -4.75541846255689    2.37572159121221    2.12466457661429
C        -1.34557730825136    2.15880771387726    0.65168036011102
C        -3.63308301328038    2.22601342972138    2.29731094413225
C        -2.36758420623329    4.40180709602814    2.53166560857708
C        -3.23345746509588    4.98620520205483    3.61644753989563
C        -3.34590715109203    6.50678664142180    3.40448569205117
C        -2.00116398539347    7.23877346429302    3.31276843196487
C        -1.57030500684887   -0.01730942476372    1.91807522681819
C        -2.63779552842089   -0.60433630581101    1.03271685765364
C        -2.41900991059160   -2.12406925836671    0.92290655237553
C        -2.35570572354848   -2.85732182708973    2.26850603806660
H        -2.72813067941244    4.64968451423421    1.53089439720429
H        -4.24295550381710    4.56712229773798    3.60674626730146
H        -2.79324430107887    4.78920262366408    4.59798039623535
H        -3.91104570375112    6.91841532018055    4.24410528648236
H        -3.92358546007082    6.70130399995150    2.49851157222488
H        -1.31882465852285    6.82395856180411    4.05473710202045
H        -2.18064562298610    8.27691024232254    3.60087996204552
H        -0.56280380703952   -0.26307954508408    1.57496935628480
H        -2.61066197454814   -0.18515951040255    0.02359595180568
H        -3.62779608581593   -0.41003942530000    1.45482933282479
H        -1.49949741564279   -2.31496219746482    0.36569702945730
H        -3.24417150693045   -2.53730205676545    0.33805670778665
H        -3.11202134380753   -2.44291717631373    2.93520434873969
H        -2.63980204219131   -3.89534741584439    2.08227386239915
C        -1.98871695915400    2.15922092795986    4.58236757722470
O        -2.16492521763239    2.01005187178004    5.70418265438129
C         0.29846671947585    2.22604324716471    2.93671613285722
O         1.42074417927899    2.37589137001443    3.10963923275572
C        -0.96685345794615    4.40181170590018    2.70244220363426
C        -1.76430898724479   -0.01728477376906    3.31590376673481
C        -0.69674074658088   -0.60424673801126    4.20120850433925
C        -0.91535057570740   -2.12400077470465    4.31111436676367
C        -0.97881262926567   -2.85736724224734    2.96558541557118
H        -0.22244653608099   -2.44315463668112    2.29882156201947
H        -0.69486918994690   -3.89541170689986    3.15194066340207
H        -1.83472906735343   -2.31496925635167    4.86851494151682
H        -0.09001932897449   -2.53711999351068    4.89580754297376
H        -0.72381497299216   -0.18503840691989    5.21031949192586
H         0.29320648410444   -0.40988298101636    3.77900459352681
H        -2.77178761097078   -0.26306520924809    3.65905803312641
C        -0.10095722636537    4.98621894779601    1.61768141824628
C         0.01142305223550    6.50681593144594    1.82961072862234
C        -1.33333188213300    7.23877849651882    1.92135144206562
H        -2.01567135747689    6.82396393577532    1.17938285833298
H        -1.15386019782788    8.27689833531513    1.63324022845655
H         0.57651057359423    6.91844870808266    0.98995933896977
H         0.58912768056199    6.70139563159701    2.73555507365377
H         0.90857002883268    4.56720719234081    1.62745926822383
H        -0.54109483601409    4.78914745470430    0.63612814874066
H        -0.60631952890359    4.64969852483089    3.70321936249423

