72
CSD_code = QAJDAI | q = 0 | S = 0 | Stoichiometry = C35H31N3P2Ru | MND = 8
C         2.05749749632364   -1.34271610800541   11.36784590000275
C         1.42796875548204   -1.73614518407913   12.54189423842646
H         1.65326345067583   -1.20859546102946   13.46088396839375
C         0.53494053353105   -2.79298413839450   12.53252383895777
H         0.04982727180222   -3.09695318914758   13.44827834647574
C         0.26568448118340   -3.45815606712025   11.34841516469556
H        -0.42989637917924   -4.28460448986785   11.33798167034220
C         0.88361126977012   -3.06224781507921   10.17135550563018
H         0.66514339228660   -3.57820311948981    9.24731686012356
C         1.77430314713155   -2.00581503632689   10.17618268622409
H         2.23978000385442   -1.68127592168343    9.25454467898546
C         2.47224325226379    1.17365298699851   10.18096833537454
C         1.09287074599557    1.18394343893881    9.98777447375001
H         0.47622570102638    0.46699828842086   10.51239645268546
C         0.51423030882923    2.10103374473297    9.12953329775419
H        -0.55637611983437    2.09815699545586    8.98326423428933
C         1.30237788979829    3.02411159657867    8.46226293324849
H         0.84919414632658    3.73992439197126    7.79241211973744
C         2.67314458401672    3.03256431880890    8.66425200471795
H         3.28995547703416    3.75756132396803    8.15272239207572
C         3.25461940319909    2.12034134338334    9.52510441502715
H         4.32234644647779    2.14747505264276    9.69265232957488
C         4.72483831691314   -0.60444792637441   10.61302582523752
H         4.46225219382811   -1.41325496386726    9.92513800454194
H         5.20342471184330    0.20205536460869   10.04876027975667
C         5.66097643843945   -1.08847037624873   11.71570072305157
H         6.65044654955404   -1.35132086329769   11.32774302844867
H         5.21199204904551   -1.94472975324804   12.23059429486611
C         6.91581446715170    1.41301182778948   12.09178235217798
C         6.40751841249487    2.60728205209157   11.59871463228623
H         5.36067311962322    2.83257603515746   11.77103956763987
C         7.22605451398589    3.48290294482057   10.90792184852143
H         6.82738160659706    4.41144603293223   10.52484810525183
C         8.56070986531320    3.16759253032185   10.71282012530802
H         9.20407607455903    3.85022864045781   10.17729582219220
C         9.07484686210016    1.97917604851445   11.20883363088168
H        10.11750811218483    1.73909663207541   11.05897653109837
C         8.25747388987724    1.10189919315345   11.89711554591858
H         8.65454910843171    0.17707761182230   12.29425582469740
C         6.87612905407874   -0.34817139120851   14.27247268007191
C         7.20425108225041   -1.68390808044186   14.46534931426930
H         6.85094666780375   -2.43611529044832   13.77582821858394
C         7.97322292009807   -2.04941840481920   15.55650264242499
H         8.22411583199918   -3.08887949891284   15.70944370872534
C         8.40927607257011   -1.09354743937237   16.45819403598284
H         9.00033352632636   -1.38828473717047   17.31255540956241
C         8.07759037779950    0.23953149596834   16.27304409504140
H         8.41005066302506    0.98420172043414   16.98161014981899
C         7.31084695053191    0.60941836405376   15.18603537677001
H         7.03116759511965    1.64495706909594   15.02732527068564
C         1.79182576023488    2.16032347369562   13.85267659423848
C         0.48964910042264    1.90712171566561   13.38490056673576
H         0.14712513040496    2.36592034138055   12.46648925631176
C        -0.33013791974733    1.09079889422416   14.12484996545738
H        -1.33311720957680    0.88480647123626   13.77984248395301
C         0.10266270986274    0.52050651821379   15.33272285737571
H        -0.57720547739376   -0.11262970227590   15.88394709760354
C         1.36018922371046    0.76128360600991   15.83176477615322
H         1.68192094792633    0.33330924101966   16.77157230029712
C         2.22940256580524    1.59075333389700   15.10175974874006
C         3.57157525910061    2.05364243362649   15.34754531456301
H         4.10463359143581    1.94072090587308   16.28396432785010
C         3.89840274419511    2.97339994130577   14.31581703443605
H         4.77435889592938    3.61195642078423   14.30511699296032
C         2.86406336261871    2.98494208117778   13.34884471022014
H         2.76653141009777    3.68648257985447   12.52854192256718
N         4.00669294757992   -1.00376547861585   14.25905595189650
N         4.11168571699294   -1.16035185633228   15.41704867821043
N         4.22336341812230   -1.46427170627922   16.50668280704440
P         3.19987587741579    0.07522517094543   11.43830738464985
P         5.78521256215164    0.27322786118061   12.96367460610419
Ru        3.70226709116506    0.93192596385229   13.45868173232775

