68
CSD_code = QAJDOX | q = 0 | S = 0 | Stoichiometry = C30H31NO2P2PdS | MND = 4
Pd        3.10460271318933    5.58012619235209    0.33434673156898
S         1.04752553298371    5.03035712336447   -0.60565896114837
N         2.05069809394052    4.77040647659480    2.05634248027498
H         2.59595231873566    4.75559549733459    2.92198325105805
H         1.08512932626421    5.04292305106280    2.25320683139537
P         4.13161519246702    6.01243242214521   -1.58176255343579
P         5.05648916383802    5.83969037267436    1.52681517740150
C         1.16826443319531    3.39730591525496    0.22117975034913
H         0.15320810752182    3.12793526531468    0.52528554274405
H         1.52870881049149    2.66976569727072   -0.50994875589865
C         2.11389216782767    3.44269494586073    1.41997047211073
H         1.87616051838511    2.63314519473213    2.13276001476759
C         3.63207947631736    3.32178823841675    0.97751742517681
C         5.83074615355737    5.32401663522925   -1.70651261227587
H         5.70305630691729    4.23787642311016   -1.62217721852480
H         6.19594996596862    5.54818299520518   -2.71583298858827
C         6.82301581255862    5.81651178903524   -0.65246745370986
H         6.78389133804858    6.90772178927195   -0.58279681938080
H         7.83040991636676    5.53787147545700   -0.97924144199042
C         6.58753554438677    5.21060784177830    0.72992397946960
H         7.42741077166599    5.45072583828882    1.38992264631546
H         6.49455353396979    4.12475626262414    0.65995747576078
C         3.37725677285366    5.31839640095804   -3.08214512528665
C         3.08971601716245    3.95537029777076   -3.07921817336141
H         3.31011712595459    3.37063688588906   -2.19497459632084
C         2.51224961780130    3.37222920088658   -4.19062609704632
H         2.28303435016021    2.31673406550789   -4.18732745742990
C         2.21771626871678    4.14220744904559   -5.30530975230522
H         1.75905381938819    3.68688121763876   -6.17094871615024
C         2.50323121531677    5.49677270776670   -5.30804130519431
H         2.26995798983135    6.09759755801481   -6.17518524672750
C         3.08168673140513    6.09035178158644   -4.19921636756381
H         3.29620415851443    7.14987443409817   -4.20046729615704
C         4.19721868737504    7.79500054216410   -1.90720460440205
C         2.99966715865781    8.46609687604879   -1.65860173960207
H         2.14537679238177    7.89139049591230   -1.30457431098175
C         2.90966332407970    9.82790992472969   -1.86749811160296
H         1.97879017940108   10.34436460699168   -1.68519423815116
C         4.02157714379974   10.53244617067142   -2.30472683650902
H         3.95977952505589   11.60020068069236   -2.45484553008249
C         5.21100086038576    9.86938528583305   -2.55254977123841
H         6.07386728447877   10.42000338914277   -2.89793189824862
C         5.30133845915181    8.49993711863481   -2.36579884040487
H         6.22765909770940    7.98874274049735   -2.58277869270125
C         5.35350254105773    7.66989524033054    1.45925713345079
C         4.23480809560835    8.46875447177553    1.24572711952346
H         3.25717596721786    7.98746255251408    1.10601290819757
C         4.34194701384816    9.84704778358651    1.21316590288166
H         3.46528739442673   10.45572631121739    1.04707315100176
C         5.57854768414880   10.44388299709691    1.38885948688492
H         5.67139712918060   11.51928341584208    1.35221925080267
C         6.69613000563855    9.65966000875013    1.62296558002359
H         7.65957078005430   10.12508822853071    1.77485234294283
C         6.58334632499414    8.28190519842245    1.67028227371534
H         7.45896316863192    7.68138750327691    1.87436691959401
C         5.28445250409636    5.69427259907121    3.32616832953523
C         4.48368877377760    6.49019101187863    4.13952632339984
H         3.76586606801509    7.16436225206927    3.68551425533114
C         4.60329776330545    6.42290361824775    5.51525301882881
H         3.97951116180722    7.04350686754852    6.14263012232899
C         5.52192681915721    5.55724279845741    6.08666518009747
H         5.61738046624617    5.50373249161938    7.16130177476166
C         6.30882840375967    4.75299483515610    5.27867701664077
H         7.01514375079261    4.06836324677459    5.72575019230864
C         6.19055223144903    4.81468406274455    3.90152551114808
H         6.77457947358517    4.16142835232637    3.27331561065613
O         4.45469744373242    3.64107412346042    1.88073209175395
O         3.90264125739946    2.95538275695073   -0.16558976150275

