37
CSD_code = QAJFIS | q = 0 | S = 0 | Stoichiometry = C17H11BrN3O4Re | MND = 6
C         3.64253929668492    8.67434248779963    3.12470754317201
C         3.62151642049563    7.73974554212018    5.80819443055684
C         1.27209589590323    8.79387355967109    4.65940791083485
C         0.33671216217435    5.77729806196476    5.76115675991790
H         0.01140604676054    6.75905863251493    6.07902328946394
C        -0.40581197324422    4.65034715623940    6.06719613496736
H        -1.32064174868823    4.75013283549606    6.62808769848530
C         0.03733335735377    3.40514320323642    5.63695940787157
H        -0.52733184126158    2.51217152691551    5.85464304753555
C         1.21395091201728    3.33453162954034    4.91814397510343
H         1.60754189524357    2.40060252385496    4.54985249829356
C         1.89856252376460    4.51730653559762    4.65128328120564
C         3.11682763364322    4.58204426058659    3.89748754519085
C         4.87272184062251    4.18836396601975    2.78937456666938
C         5.89451176498596    3.45670386696763    2.09083438473044
C         5.84735609750065    2.06418458441863    2.00465255586894
H         5.03430187921289    1.52554752649290    2.46807817226321
C         6.83766693805876    1.38734116060480    1.32627844304529
H         6.79981191693341    0.30983249970054    1.25906886221313
C         7.88979819423712    2.07252129504191    0.72156393816388
C         7.92580627384578    3.46095145750065    0.81276628296341
H         8.73439005483639    4.00376163438504    0.34624911094144
C         6.94302328883966    4.15382633192990    1.48804153756623
H         6.96311981203701    5.22945789173283    1.56011138072778
C         8.95549495417207    1.31597961782710   -0.00415092982162
H         9.66029036844106    1.99136786295823   -0.48105196053990
H         8.51410293078416    0.67380025495361   -0.76471311443015
H         9.50094482283229    0.67742794410038    0.69015548274223
N         1.46747886153575    5.72940245800176    5.06521560678152
N         3.70049166278554    5.73283897481767    3.63886612840372
N         4.80904504183150    5.48060540545470    2.94247929399655
O         4.24707573488033    9.33062500634862    2.41429303392125
O         4.22703758959241    7.90298432487172    6.76764173561351
O         0.43567950230801    9.54055722948683    4.89015587361962
O         3.82224796129410    3.56429652189637    3.38668375348986
Br        1.16169115355582    6.84912884885740    2.13670149089746
Re        2.58411077402979    7.42769538009420    4.19686084757373

