22
CSD_code = QAJHEP | q = 0 | S = 0 | Stoichiometry = C3H10N3O5V | MND = 7
V        13.57540974341470    5.66385638762157   12.45176245831504
N        12.46076991445407    7.38358288351488   13.74143079266239
H        12.99583544184229    7.42337951538348   14.60575650568604
H        12.54671709361730    8.28428121824852   13.28310224174162
N        12.52109429126980    6.17133812488895   10.95806681828691
H        11.52528101866109    5.90715047896047   10.90606646967750
H        12.75512810696676    6.96144839216884   10.33476394174546
N        14.34213523323795    4.89936319128142   14.01428979474323
H        15.21591067018718    5.23203037181674   14.45446393439240
H        13.75638528156079    4.34653901957499   14.65968857704003
O        11.96068130991234    4.95960938760938   13.14400626906355
O         9.97654480224933    4.85405214323695   14.14021429235278
O        13.31343372385823    5.13397423197340   10.74947082567375
O        14.58383162624814    4.23862617583361   12.89367656279108
O        14.58765671451187    6.79927529337365   12.32886514441138
C        10.96358275139352    5.44424344992414   13.76161338883399
C        11.08590362350854    6.99477453599963   14.00573190584104
H        10.42458699569089    7.46863683269297   13.26922735182133
C        10.61692533882869    7.33228488964778   15.41668194234282
H        10.55628612248205    8.40912901562051   15.56329479493602
H        11.30196543348027    6.91152530931728   16.15192729073693
H         9.63573476262401    6.89479915131070   15.57979869690458

