101
CSD_code = QAJNOF | q = 0 | S = 0 | Stoichiometry = C30H65BFeP4 | MND = 7
Fe        4.53010296232858    8.67174989777415    4.29328413106974
P         3.28251579919673    8.20242824144194    2.51657319682065
P         2.78839774120641    8.38077856664923    5.66496436506210
P         5.02584604281919    6.51832341247894    4.53820568256896
P         5.80403591977674   10.35606752657332    3.96973741357268
B         2.22033013913527    5.95523901395468    4.12928396804990
C         1.20061433298694    4.69168432114761    4.08149838594030
C         0.75267910910083    4.09201026128266    2.90577938660812
H         1.06609939319234    4.48724647274474    1.94918514646108
C        -0.08472415665947    2.98938127102156    2.90845231312308
H        -0.41024138236071    2.55715596009620    1.97072453909678
C        -0.50503168782702    2.43664732359771    4.10411037866552
H        -1.16045625236152    1.57643977965051    4.11197537171076
C        -0.06745261849084    2.99836619932729    5.29097000873074
H        -0.37920029079708    2.57287084160331    6.23638429343416
C         0.76875651023294    4.09881417703103    5.26967508361502
H         1.10256083447745    4.50630559687512    6.21560256929702
C         2.50663782045261    6.55799930911789    2.61952897484139
H         1.57453825775968    6.61875328854554    2.05358231841182
H         3.16076388406282    5.86865636244397    2.08086254340118
C         1.59244927900679    7.13697547552290    5.09199187837300
H         1.11574015766687    6.71408908685737    5.97909278596105
H         0.81121931184759    7.66589528087753    4.54015440221665
C         3.62386962316353    5.40205234417622    4.79737726824759
H         3.89148886508305    4.41938472793880    4.40660768773784
H         3.49942031886031    5.28296010729346    5.87706712928024
C         5.49830944167521    8.42601956502322    0.63465995269238
H         5.93214119144365    7.44401410087147    0.46086929553004
H         5.93740699905675    8.83252065179871    1.54410512346658
H         5.78351051253866    9.06185364021146   -0.20375956886237
C         3.97628021139330    8.34710360677044    0.75001200824418
H         3.57755762669639    9.31713413881263    0.42653707682826
C         3.45820212988852    7.27821476753572   -0.21070669855533
H         3.73623939809047    7.54596127951941   -1.23069062740461
H         2.37852677912438    7.17779017663741   -0.16834891776375
H         3.90073183672878    6.30872199206976    0.00981663696251
C         2.15368228473852   10.79465074926225    2.24005220494525
H         2.60546782139530   11.05403616938329    1.28389863407183
H         2.85777622802428   11.03673650149416    3.03212376770320
H         1.26485511329692   11.41316649214984    2.36512535025286
C         1.78026869399472    9.31726052753223    2.29759812886680
H         1.22950697868379    9.14356610885952    3.22866693915895
C         0.83371045327174    9.01041334902125    1.13810926713952
H        -0.03923145786276    9.65870712665662    1.21905115267618
H         0.47620892632567    7.98432014046505    1.15431347318872
H         1.30119140155213    9.20734135075734    0.17583683995950
C         2.52205251241229   10.93254102237034    6.78236676392174
H         2.22021475351908   11.95683340163376    6.56239646504984
H         3.59010166694907   10.83084836640902    6.60442736351911
H         2.32335065755384   10.74809033778334    7.83504653175215
C         1.76712932482474    9.94396092119485    5.90004567754435
H         1.74664193498740   10.35755929328556    4.88540555333936
C         0.31775872915327    9.79580525877453    6.35495372502739
H         0.24465249145272    9.51123013880417    7.39930236289390
H        -0.21909748712954    9.06058446344401    5.76113445993588
H        -0.18726930929216   10.75502224222938    6.23580379180613
C         4.34597205893302    8.49150268960878    8.08596733914036
H         4.03500822711529    9.42020368109023    8.55614370452547
H         5.12326545847090    8.71664677615952    7.35996580845219
H         4.77095720705186    7.85200230272637    8.85956022927928
C         3.17466376319895    7.78714470878534    7.40819548455125
H         3.47942723944830    6.75391085039161    7.20246827347793
C         1.99363985295579    7.72478346609040    8.37508806849876
H         2.26179276404586    7.09294852822030    9.22251607920270
H         1.10430749178972    7.30271870605100    7.91425167036140
H         1.75257244806321    8.70995280731358    8.76645356757527
C         7.36588188083503    6.97521973306491    6.14782500720867
H         7.74174209603316    6.90346426728907    7.16834175661093
H         7.08478979293592    8.00875123189308    5.95766086298523
H         8.16994888904840    6.69675774280660    5.47316642939280
C         6.14335858802549    6.08282968490024    5.98018130313986
H         5.47810218488962    6.29841057620658    6.82629616241473
C         6.52782497539711    4.60776229199593    6.05247517166131
H         7.26888595572969    4.35569151022689    5.29794336492487
H         5.65975121149576    3.96594392639595    5.92284185865536
H         6.96416613972833    4.39374815185035    7.02854923999289
C         7.30640850549678    6.24778505723111    2.90536778765282
H         7.92373532485047    5.57395455285372    3.49453055774600
H         7.44248161424749    7.26236388133228    3.27267930472015
H         7.66011970284103    6.20510744686035    1.87479739549376
C         5.83577931728004    5.85029374851481    2.98251121323391
H         5.29407055931936    6.41680734080045    2.21547039748563
C         5.67969221396865    4.36663654609054    2.65855683303031
H         6.22921680344535    4.15114895833170    1.74100851516968
H         4.63992472748937    4.09722909239746    2.49066906558259
H         6.08131321590567    3.73115096941092    3.44264194382301
C         5.86025802256234   11.61849315314481    5.29618586859360
H         6.13057666071586   11.13802313577464    6.23530309132132
H         4.87789141786814   12.07538149070154    5.39726473352870
H         6.59507024382526   12.38568472861899    5.04860070431138
C         5.52740319824026   11.47092008757562    2.53506106139268
H         4.76478754656559   12.20031682488910    2.80367919129650
H         5.18272943671092   10.90240333194049    1.67655704807722
H         6.45237181340291   11.99147459567084    2.28783735913787
C         7.61028068420861   10.06197067019046    3.79543949453443
H         8.15014005959753   11.00910357679650    3.82191204312513
H         7.80983909561717    9.55852578761557    2.85017814127876
H         7.94878666181239    9.42817872062687    4.61275399102271
H         5.63009077932226    8.36603386394423    3.44587679237333
H         5.28650852900711    8.86183698492735    5.49785796899269
H         3.86312788217596    9.94189909389562    4.32914415883331

