113
CSD_code = QAJPAT | q = 0 | S = 0 | Stoichiometry = C40H67BFeP4 | MND = 5
Fe        8.02559148005980    2.69340017291315    4.58469815209243
P         9.19747781314519    2.16945418315316    2.73562458766083
P         8.53068026132180    0.86231607318000    5.75529665359796
P         6.29849514266395    1.55544462480699    3.70203721029143
P         7.77418445746141    4.88418060493353    4.39715486010350
B         8.40161635704879   -0.56861297941636    3.25839354556862
C         8.63615448022663   -2.01944442126538    2.56924600901679
C         7.72578249241458   -2.65373744557590    1.72602076271103
H         6.77887689619918   -2.18045090873982    1.50523164093629
C         7.98718206700773   -3.88344176497328    1.14546014395724
H         7.25095389879803   -4.34073140718958    0.49671717272864
C         9.18494890702646   -4.52925400217720    1.39007352795513
H         9.39322996662571   -5.49041781068769    0.94022887711725
C        10.11508001623328   -3.92384352653792    2.21746949938981
H        11.05999016627099   -4.41359323677781    2.41586388637992
C         9.83860276823482   -2.69553508548009    2.78733365022208
H        10.58840265221201   -2.24278962555614    3.42331026055216
C         9.63825305908871    0.41354048632282    2.75013653267572
H        10.01762814052825    0.13899119478446    1.76471839327335
H        10.48154166992694    0.31019369889442    3.43891813642357
C         8.50191321719597   -0.73928450849435    4.90122724681109
H         9.39278709295770   -1.29765010000532    5.20026700147831
H         7.63162237648987   -1.29485328191655    5.26312248296506
C         6.89388425224497    0.01932190511683    2.89173217103513
H         6.17178033011562   -0.75507674158289    3.16063148427848
H         6.80653754669212    0.16887668449684    1.81765703620786
C         8.56359187178678    1.21771799576906    0.03187952748080
H         7.88497029200873    1.37391742279132   -0.80822398031176
H         8.38597783850705    0.22177275697503    0.42413246216770
H         9.57664971753258    1.25646116098605   -0.36057638159165
C         8.30911122213323    2.31242073586609    1.06984494399151
H         7.26534990048217    2.22656178789377    1.38424186506255
C         8.46459920768225    3.66875808443306    0.38670385273706
H         9.45143157492261    3.78052124363834   -0.05795929789140
H         8.29276340134238    4.48094923199413    1.08364369879479
H         7.73503572746827    3.75768799201830   -0.41904511343958
C        11.74349954148460    2.34228875745704    1.39566405588801
H        12.62240887067800    2.95747304278969    1.19850779351603
H        11.26505508280910    2.12762841325505    0.44506484058890
H        12.07989780836534    1.40488188199380    1.83208569023210
C        10.80736132158434    3.08058497433049    2.34532828313863
H        10.49057340692627    4.01579049646119    1.86864842508889
C        11.55488500496538    3.45742769905725    3.61710360170080
H        11.98998392643959    2.57928290685593    4.08887927327370
H        10.87896073035332    3.94034056385422    4.32107523791265
H        12.36741546441829    4.14926045992140    3.39145234492141
C        11.04060403839331    0.22501521761095    7.12668627566662
H        12.11738751943077    0.38756690755774    7.06483571926753
H        10.84117449414697   -0.81194893797938    6.86584425771338
H        10.74177403264613    0.39364822362073    8.15817900834521
C        10.32734023394721    1.18293166392719    6.18098466256000
H        10.81425559056501    1.10561135397126    5.20119349513840
C        10.44784592477408    2.63105717128196    6.64848971140337
H        10.16477681530443    2.74172045595617    7.69101169247708
H         9.76890828624392    3.25765708920981    6.05306951666555
H        11.46551986594847    3.00559474673558    6.53897116955613
C         8.02308790928364   -0.81678234980727    8.06625802365836
H         8.99042956177496   -0.79272795774049    8.55770351062680
H         8.02125930467448   -1.63472867382763    7.35089548029973
H         7.27249812281322   -1.03470544406754    8.82638279677872
C         7.68541681101058    0.51926060302801    7.40475908399150
H         6.63300722410516    0.47576646774682    7.11171656473131
C         7.81227432778099    1.66211976302589    8.40624077152252
H         7.02685920445263    1.58560999895977    9.15795782607653
H         7.70862706657093    2.61923761232097    7.89992955523335
H         8.76837387379388    1.63547536910515    8.92405792019511
C         3.93539938810297   -0.01720547642333    4.38487319714372
H         3.44824986442790   -0.54974454774029    5.20200915706587
H         4.23297000204687   -0.75756485392382    3.64702898561935
H         3.19632770976745    0.64392451931506    3.93822494322871
C         5.12601047960464    0.75877626166113    4.95140023590468
H         5.79604101621874    0.02642753446430    5.41738774250732
C         4.61237196352562    1.70811014824176    6.02876664218286
H         3.80592118656935    2.33126258263312    5.64741552918441
H         5.41172663118873    2.34965212346039    6.38851315928983
H         4.21622209594747    1.14071815746270    6.87122258399100
C         4.52894651115529    1.46095699456523    1.39221379569459
H         3.65223030987486    1.91182274271281    0.92618660426411
H         4.26136721332635    0.46220016357539    1.72163232774603
H         5.30084133073796    1.37408330350907    0.63034267410154
C         4.98702181580136    2.34153683075390    2.55221814486337
H         4.13737378802615    2.46797695921649    3.23322554875926
C         5.37668077034997    3.72961994829830    2.03970279156811
H         5.66140564580007    3.69925015865786    0.99121789725274
H         6.22110811595429    4.11877912569459    2.61474971791812
H         4.54863307108878    4.42994135275265    2.13795621104698
C         8.24752487117730    6.10642259582203    3.08248527412237
H         8.34128553052735    7.10412521379248    3.50872055425790
H         7.47099317237490    6.12419286670365    2.31851137959221
H         9.19372495159775    5.82131550045283    2.62545772894419
C         8.81890026231087    5.54994170432973    5.76174241625192
C        10.06078681075534    6.14229068526920    5.55815102267137
H        10.45278272231780    6.26781889277065    4.55910657460269
C        10.80984272383300    6.58383673216805    6.63576975540627
H        11.77295504600094    7.04300129875881    6.46395313861532
C        10.33033322303515    6.44116767277168    7.92586457920205
H        10.91849106719223    6.78594891624464    8.76349878603999
C         9.09065466548228    5.85855375666512    8.13763159760713
H         8.70705222380077    5.75044231669497    9.14183422904959
C         8.34323088546312    5.41554001298478    7.06438954370144
H         7.37541304448694    4.95992318813696    7.22276408254845
C         6.21775905265995    5.69823007800542    4.92076828154456
C         6.17253105523529    7.04251461785471    5.27881780807665
H         7.07093932868686    7.64453792071558    5.26563161596880
C         4.97843431190373    7.61166021763122    5.67951435202731
H         4.94906125807091    8.65545091714328    5.95787580474770
C         3.82241189383358    6.84878910436358    5.73227564704881
H         2.89257653288798    7.29976619830379    6.04693867533293
C         3.86674180700748    5.50778149587155    5.39234835864471
H         2.96963910648785    4.90732849030431    5.44496871373264
C         5.06140784393424    4.93879341646190    4.99026505733634
H         5.13664597158677    3.89291199794381    4.73724473557733
H         7.27099210031401    3.01058049165938    5.78689330734146

