149
CSD_code = QAJSEA | q = 0 | S = 0 | Stoichiometry = C56H82Cl2N2O6Pd | MND = 4
Pd        8.21060837051012   10.27234606591557    0.00432709649888
Cl        7.14423034189729   12.17554485567887   -0.67759704432131
N         6.57977326395727    9.66827481354764    0.84524656033609
C         6.24669693675608   10.10031520468281    2.06297999680152
H         6.95153289827011   10.78249446988598    2.53892425201606
C         5.08261870489276    9.72109667723099    2.69300573903646
H         4.86977525528645   10.10468854480406    3.67712265478334
C         4.19178606049264    8.84837256520857    2.05160479067163
C         4.57077701887112    8.40463339134480    0.77571401486235
H         3.93280929659883    7.72825989268196    0.22748652796265
C         5.75426914204199    8.83106067571635    0.21542873759701
H         6.06847778731707    8.49776251299589   -0.77364709254084
C         2.94115294128814    8.40238916956836    2.61666753297918
H         2.38526553930135    7.72045239032659    1.98866352479386
C         2.43987193682854    8.77165127512095    3.80883854029185
H         3.00441863596017    9.46099240316535    4.42238426482861
C         1.18236360382267    8.35716084883502    4.38888053793999
C         0.81784740133290    8.90312063542085    5.62185748994159
H         1.48937936633016    9.59923034791503    6.09872603111738
C        -0.38022000855297    8.56496406710967    6.23166674326737
C        -1.25268116998485    7.66759046133682    5.59390218675253
C        -0.88253941166142    7.10308240126507    4.35889038439100
C         0.32363738459311    7.44652574163695    3.77018725933870
H         0.59926698191516    7.01808099785958    2.82230333638829
O        -0.79115764635332    9.04395337262946    7.43703827403716
C         0.08485740018931    9.84527660473028    8.20311218498558
H         0.26013102000625   10.80497182782809    7.69605351066770
H         1.04736852515141    9.33373390918760    8.33700378156760
C        -0.57664396949156   10.07758417957356    9.55831977427801
H        -1.57315164941250   10.49010629362968    9.39039103638309
H         0.00887523012239   10.81385128837549   10.11209444303481
C        -0.68746763918755    8.78221497794141   10.35925860872998
H        -1.20433605044761    8.03720042620781    9.75249832765580
H         0.31561470377722    8.40446006780412   10.57230608355814
C        -1.44031692494361    8.98086228921606   11.67172209023519
H        -2.45790476378387    9.31530261246004   11.45705611185374
H        -0.95185524688707    9.76512185401330   12.25534158253461
C        -1.49047338837375    7.69661053497160   12.48991815928319
H        -2.05199690777839    7.84797565975351   13.40892729276282
H        -0.48568571810484    7.37227728241760   12.75191919049527
H        -1.96856038170573    6.90276919845206   11.92129528579200
O        -1.78651622174959    6.24224534395294    3.83298706845007
C        -1.50213486252346    5.60472935449373    2.60595563526022
H        -0.56790340284195    5.03085309702428    2.68391640211693
H        -1.39237275620239    6.35195687599772    1.80652189298544
C        -2.66449776629968    4.66780791386872    2.29141338777670
H        -2.41710123811186    4.09293902144720    1.39678482258964
H        -2.78192851981498    3.97429665568629    3.12528941793509
C        -3.96896263696033    5.43279001801772    2.08213413684076
H        -3.85311868996121    6.12515728782794    1.24438978949501
H        -4.17422440548806    6.02045512837720    2.97802827944362
C        -5.14155147633049    4.49599249638537    1.80512907966738
H        -4.92810791278430    3.90304470148128    0.91235292235650
H        -5.25461370936121    3.80394242998221    2.64233280417832
C        -6.44259919570455    5.26323585527371    1.60440570095890
H        -7.26571442450020    4.57889503834679    1.41234643977580
H        -6.35857500784720    5.94388029321695    0.75984692393124
H        -6.68052659651873    5.84669308930271    2.49101815621740
O        -2.43496272892017    7.26444827393534    6.14968256652227
C        -3.40873075890940    8.27835965675924    6.36334482209595
H        -3.76051499780144    8.64722325465364    5.38780713609328
H        -2.97584049129036    9.11683439832929    6.91905642539930
C        -4.56542608059870    7.67035922200989    7.14615682322069
H        -4.89399094477776    6.76642857489665    6.63090250786668
H        -5.39264323501884    8.38347914616005    7.15360908303177
C        -4.16018921302045    7.32462078013774    8.57646745953277
H        -3.31941773718993    6.63017603692151    8.54072393149628
H        -3.82469177859019    8.23187306718729    9.08457165644485
C        -5.31072026110351    6.70062820821236    9.36141484663422
H        -5.64543365854766    5.79448216752752    8.85165176903782
H        -6.15252588238134    7.39735342156932    9.38279149410938
C        -4.90357622940773    6.35685931587922   10.78884800118794
H        -5.73827673788974    5.91943032589059   11.33199422808010
H        -4.57985921000246    7.24971296786398   11.31932745066508
H        -4.08377361654988    5.64162689163426   10.78791969095196
Cl        9.27673036870358    8.36876212350818    0.68708201227263
N         9.84067629783367   10.87768029304636   -0.83703506481946
C        10.17397714828432   10.44587068772986   -2.05479196618686
H         9.47045318707902    9.76178679888391   -2.52993276104344
C        11.33678863834992   10.82748287100965   -2.68568281695238
H        11.54980251634941   10.44408459072810   -3.66983581791257
C        12.22600022524519   11.70254325998241   -2.04520562385897
C        11.84698768004700   12.14565697858195   -0.76910262125479
H        12.48384886698632   12.82356510564067   -0.22148623200994
C        10.66481350508201   11.71678923423372   -0.20792412360379
H        10.35062671034125   12.04948817951308    0.78136235972111
C        13.47488030616196   12.15170769269284   -2.61159046738260
H        14.02936534668666   12.83571156106074   -1.98459579449337
C        13.97594559413902   11.78334750364796   -3.80412986032327
H        13.41281465887011   11.09198309047858   -4.41669103394691
C        15.23135098201558   12.20161917113274   -4.38596682024173
C        15.59697034524044   11.65474646810279   -5.61820036467400
H        14.92778004328529   10.95510836054224   -6.09318421207268
C        16.79318429299794   11.99640856459330   -6.22965531916286
C        17.66267772128001   12.89844308353777   -5.59439083129225
C        17.29124670916348   13.46399554625185   -4.36023010019050
C        16.08693854976866   13.11692805001556   -3.76983827535335
H        15.81028433204273   13.54631290860974   -2.82268380860904
O        18.19218608025367   14.32949514740232   -3.83675074253523
C        17.90665021910180   14.96738571956876   -2.61017648340301
H        16.97057173801437   15.53825825918992   -2.68808058583116
H        17.79976302642891   14.22064688456731   -1.80990102190571
C        19.06628856845247   15.90823087460634   -2.29732048551793
H        18.81756068942007   16.48343993570434   -1.40327992464457
H        19.18121318241054   16.60109236391361   -3.13208036345932
C        20.37315909873622   15.14745629011974   -2.08772433701495
H        20.25976138106178   14.45567772262896   -1.24915368425609
H        20.57982474186055   14.55941339890772   -2.98305270659432
C        21.54300683933240   16.08812635177956   -1.81226008460790
H        21.32836458078918   16.68105750903372   -0.91975545154665
H        21.65330057295441   16.77989884620914   -2.65006735421865
C        22.84659037430884   15.32509642536951   -1.61193531150671
H        23.66769937418420   16.01214188451525   -1.42096777023109
H        22.76533280237759   14.64479172391491   -0.76683378675839
H        23.08570725866842   14.74175527327190   -2.49830313646997
O        18.84290161626272   13.30525111636590   -6.15181296042751
C        19.82014277004872   12.29476162472810   -6.36589893339812
H        20.17444887635357   11.92793170761943   -5.39050687452830
H        19.38975911203085   11.45428287116454   -6.92048980242454
C        20.97359862937686   12.90652586456052   -7.15055877920975
H        21.29942145167706   13.81198864421745   -6.63626922795194
H        21.80347371882219   12.19652319860435   -7.15861987458397
C        20.56521820569163   13.24990945894560   -8.58054619400661
H        19.72028238093428   13.93925398760340   -8.54403024583339
H        20.23485113967011   12.34067910643271   -9.08850839707360
C        21.71131177776988   13.88108329307932   -9.36626705603754
H        22.04086460947530   14.78917531421429   -8.85658721966434
H        22.55737845674101   13.18956142181696   -9.38854665427485
C        21.30084444995548   14.22258808934613  -10.79329634010025
H        22.13212120186472   14.66601988475459  -11.33682150256537
H        20.98306736126506   13.32767094537883  -11.32388062315690
H        20.47604523885589   14.93205943078474  -10.79164496748534
O        17.20491926445293   11.51673360679115   -7.43447847525829
C        16.33263402228364   10.70800308611778   -8.19699365943575
H        16.16230408417023    9.74949243504859   -7.68602671873939
H        15.36753737346644   11.21417768498848   -8.33266787202017
C        16.99500815944389   10.47364066510534   -9.55142313945491
H        17.99360980386375   10.06681245079566   -9.38204739334597
H        16.41313923652904    9.73225192652661  -10.10219315582810
C        17.09920523105957   11.76641590844023  -10.35743328393914
H        17.61167768513802   12.51661490485401   -9.75333629088291
H        16.09419157051918   12.13784166602164  -10.57249042750345
C        17.85387729784106   11.56673211881129  -11.66869353325095
H        18.87318464122584   11.23880101075851  -11.45214363694324
H        17.37009010933095   10.77747694627061  -12.24946392832265
C        17.89739450227564   12.84800470015549  -12.49193031097242
H        18.45979192545548   12.69596558708790  -13.41029670291550
H        16.89094538811069   13.16602342297356  -12.75529012205376
H        18.37124166784272   13.64658608661644  -11.92639547836973

