70
CSD_code = QAJWEE | q = 1 | S = 0 | Stoichiometry = C30H36N3Pt(1+) | MND = 4
Pt        4.90758521298077    4.45388304506783   21.61562152848919
N         5.64996423115801    3.13657048081268   20.06496622661475
N         5.95832273515370    3.15035400982289   22.65517862871395
N         4.06888054595741    5.68258341923717   20.45348945878786
C         4.13144952706348    5.52847904058757   23.20267719475591
H         4.88607570444193    6.02435493966299   23.81987319299634
H         3.44429273610168    6.30170522727932   22.83242686318735
C         3.35908438858069    4.54180122645491   24.01193134640118
C         3.33726167116668    4.57634274909941   25.40189083168765
H         3.89824393892854    5.33735831972215   25.92356124391569
C         2.60522980029914    3.65131586538284   26.12181901909656
H         2.59839443828358    3.70225331963912   27.20063192762105
C         1.87790352616724    2.65614574611738   25.48152621506175
C         1.07285255552856    1.66451089834979   26.26254165943825
H         0.04171162703524    2.00862705143054   26.34592632851305
H         1.46800420994459    1.54639222469867   27.26829432294346
H         1.05936721179016    0.69514745264588   25.76882787975469
C         1.89276302537207    2.62026620236376   24.09125414400831
H         1.32706232947863    1.85781014314317   23.57439447366376
C         2.61319263021207    3.55104292547892   23.36932764617918
H         2.58772192820084    3.53125234199448   22.27477368695875
C         6.42039158794897    2.21848093964249   20.53605478824170
C         7.08352825090597    1.16378119032311   19.71415215507465
H         6.67610535176179    1.15295402682749   18.70566136993583
H         6.93954199030882    0.18528479733675   20.16721370186892
H         8.15604040619501    1.34623732050891   19.64977136715555
C         6.58053840671910    2.22246297171802   21.99147203561375
C         7.46304092518067    1.19953260027740   22.62649470699998
H         6.96383817056595    0.23102349535793   22.65467569971469
H         7.71264829762120    1.48137585018483   23.64627779058800
H         8.38058905248647    1.08353205885608   22.05389767541457
C         5.38338694191216    3.34644232900818   18.71377755924098
C         4.04823106888348    3.42286605743242   18.31906614881507
H         3.27143447798896    3.24241404063775   19.05033685756278
C         3.72309018904702    3.68920156139024   16.99891448483594
C         2.29223381301609    3.72877705028672   16.55981972961041
H         2.14120524508474    4.47663464324452   15.78458242315126
H         1.62902063186774    3.93796502368695   17.39576090531158
H         2.01021601733857    2.76252533556712   16.14192167836485
C         4.74945705569313    3.91043046254536   16.08680043966816
H         4.50268799947259    4.12992584168678   15.05842171059351
C         6.08531836856289    3.85857775183779   16.46589848855004
C         7.16917785908756    4.08706299798530   15.46073242354318
H         6.87713040606058    4.84895972206232   14.74230063921173
H         7.36002435466371    3.16678288868450   14.90840168207661
H         8.09484773639186    4.39037654085610   15.94281765690666
C         6.39835757993412    3.56571664270302   17.78557626881817
H         7.42938006856728    3.55067535815882   18.10645013774278
C         6.05582632723789    3.18251381975262   24.06497309876494
C         5.48805779188801    2.17071469603161   24.83153809327881
H         4.95303962721838    1.36931846012514   24.34438853197600
C         5.56015596995875    2.22393229459027   26.21548286140215
C         4.94990397004789    1.14187642556939   27.04801389454185
H         4.56285104042740    1.54577407317501   27.97951904723910
H         5.70338495737910    0.39436002464996   27.29738422211943
H         4.14372714178319    0.64861746770886   26.51225894954979
C         6.23147829836152    3.28385700061623   26.81120679245578
H         6.29479169759679    3.32719601231293   27.88832991964164
C         6.81700464016050    4.29359791400633   26.05798506639488
C         7.55336416419535    5.41423120570208   26.72149473038583
H         8.59970456453048    5.14081769926300   26.85881885823346
H         7.13336258261248    5.62617618972701   27.70120731744370
H         7.51888163146629    6.31683792021390   26.11666944441393
C         6.71998029790347    4.24008328758659   24.67479262133817
H         7.17204312909611    5.00686600808092   24.06122781892291
C         3.67201580911484    6.30625780426718   19.56956268960566
C         3.15596954293361    7.08947991982520   18.49834018531842
H         2.08009410797278    7.21859367594718   18.61884864266017
H         3.35693693662274    6.58800673045296   17.55114227534077
H         3.63329952847718    8.06959521952584   18.49593060189347

