42
CSD_code = QAKHOZ | q = 0 | S = 0 | Stoichiometry = C14H22IO3PRu | MND = 8
I        -0.20864433892892    1.19365683919701    2.91854476698755
Ru       -1.80753316586007    2.18522827946409    1.00853281444853
P        -2.45020283367047    3.81412728446061    2.48619914827471
O        -5.22280445221047    0.23469530141408    2.54997584232864
O        -5.75060373230882    2.20155928084267    1.57493969521328
O         0.25630615657539    3.96581744997917   -0.20719727032158
C        -3.80088954223753    1.14213891699607    0.87050772535206
C        -2.80984629116155    0.12762119663513    0.75536759537672
C        -2.00661976208915    0.43496356099086   -0.38260523225377
C        -2.53172112142589    1.59675317933861   -1.01752719263954
C        -3.59988029074813    2.07731812201848   -0.21708144016219
C        -2.72001540329449   -1.12277115081246    1.56303166913242
C        -2.13346673578913    2.11819668818058   -2.36284663744882
C        -0.50562071186572    3.28661697667773    0.32339780733341
C        -4.95985696995865    1.11254043896779    1.76041261187385
C        -6.96353830667139    2.25831488174056    2.32452780384268
C        -7.20360891270711    3.67635705232666    2.81405777235964
C        -3.69994762037991    4.98507598146996    1.84706847103518
C        -1.15290245742142    4.94011127685182    3.10430395328554
C        -3.20040189156262    3.23778366756492    4.05021194363087
H        -1.25849741735247   -0.22598399962903   -0.80319823551104
H        -4.30770308989658    2.84167630667021   -0.50832214797923
H        -3.02583959405481   -0.95361296146966    2.59367071355075
H        -3.39977593108320   -1.86317075721470    1.13539012953485
H        -1.70959438947614   -1.52835415195603    1.54965185183214
H        -1.07182197164964    1.96199374241760   -2.54888854654707
H        -2.69547648689434    1.58580174951717   -3.13331889716196
H        -2.35427522664162    3.18077504775125   -2.45332858918918
H        -7.77740874022278    1.93456319786618    1.66615564110932
H        -6.89002608687765    1.55617178829281    3.16218495567085
H        -6.40552661030038    3.99158489826346    3.48202930715985
H        -7.25251585288140    4.36451545189682    1.97340259499383
H        -8.14622180243626    3.71349391069341    3.35254735972722
H        -3.93516443765168    5.73469537463813    2.60271566075291
H        -3.30028356626777    5.47379603886909    0.95860595004910
H        -4.60099142079219    4.43540802513640    1.58059059287727
H        -0.37495023542161    4.35471129827354    3.59597373551667
H        -0.71212486592337    5.47508133786448    2.26258106674542
H        -1.58150867973537    5.65103614486472    3.81148839581637
H        -3.57204056354352    4.09369620362690    4.61495350659420
H        -4.01881702187898    2.54807381887497    3.84757386253632
H        -2.44143762529986    2.71534231045372    4.63351924426604

