38
CSD_code = QAKHIT | q = 0 | S = 0 | Stoichiometry = C17H15IO4Ru | MND = 8
I         1.85627759259716    0.67299019441629    2.32855830665838
Ru        1.79642328078523    3.34941553688822    2.33614162940342
O        -2.25923700207979    3.56095541661157    2.73117939862253
O        -1.75030077896976    1.85818873259785    1.34099430372909
O         4.75881397175634    3.73579755572150    2.56299476902704
O         1.50041676290491    3.49473808475817    5.31279485505566
C        -0.25080334646960    3.64715637221250    1.48236012704890
C         0.58324320271161    3.28796858759050    0.35651558568022
C         1.59390005140301    4.26283992137475    0.25412983722694
C         1.39855545003839    5.26046776901671    1.27217109590052
C         0.23728694566576    4.87742865805799    2.00976859881686
C        -1.52308792602117    3.03342384581075    1.93071353410258
C        -2.87093873961771    1.10038995637786    1.80099821394361
C        -2.50020496830414    0.29413964584692    3.03668234969259
C         0.32071292429606    2.21948425525147   -0.65052892076969
C         2.11801130682825    6.53116264298652    1.40226670918933
C         2.29675114608659    7.11563653716945    2.65617978478467
C         2.96242224108343    8.31950154509648    2.77737705529781
C         3.45705619625342    8.95807836393671    1.65146454943199
C         3.28351748992598    8.38568638140813    0.40290165819664
C         2.61969876874871    7.17967249453725    0.27539678690821
C         3.63536733228245    3.53895365529434    2.50653563147121
C         1.63664911575185    3.40779251523131    4.18379573629842
H         2.29918578048005    4.33584735227371   -0.56502400806564
H        -0.28591010472270    5.47776737755954    2.74393277775382
H        -3.69860859893940    1.78403587742390    2.01628120150357
H        -3.13003253099085    0.44762304942987    0.96522636666100
H        -3.32900410684323   -0.35003309322329    3.31401819322343
H        -1.62211810802008   -0.31622796124300    2.83673792014760
H        -2.28163555960003    0.96203990572592    3.86679605146419
H         0.07145659240869    1.26926302810937   -0.18369024057758
H        -0.53282486730002    2.51889811547559   -1.26163228290012
H         1.18579446633351    2.08085937841753   -1.29704436870552
H         1.93354204584887    6.60652307836998    3.53965287455639
H         3.10029618478489    8.75860711601550    3.75385886284441
H         3.97886065083675    9.89785246681513    1.74828016194423
H         3.66653895832592    8.87938106000370   -0.47753762586421
H         2.47512817974370    6.74669458065387   -0.70374747970431

