103
CSD_code = QAKJER | q = 0 | S = 0 | Stoichiometry = C42H54N4NiO2 | MND = 4
Ni        2.12534967763746    1.62573782704697   16.23141435339178
N         1.18537167397273    0.98702323408898   14.66922335261376
N         1.09578048426514    3.25122274352262   16.11866086764474
N         3.09190977495913    2.29966869074099   17.76912892681818
N         3.16558778486296   -0.00352576988354   16.31967231142022
C         1.61756307643721   -0.00815479682755   13.84218460257838
C         0.72944287697915   -0.14308070782778   12.72235499291514
C         0.92763729912726   -1.09576237879733   11.58895129462492
H         1.99527683148851   -1.23156198478538   11.40522120002157
H         0.49001835755058   -0.68253225109061   10.67821687470148
C         0.28299298516532   -2.45186651250754   11.88787131627097
H         0.44429861861551   -3.14178587436938   11.06212722260353
H        -0.78777042469765   -2.33613635452629   12.04046818310557
H         0.70764128951494   -2.88447375821289   12.79091739637486
C        -0.32165231151062    0.69911376614216   12.94914334113015
C        -1.42733313391328    0.94546358912425   11.97129925654358
H        -2.40272520356406    0.99084094679699   12.45131656110837
H        -1.45910908493539    0.11031608601029   11.26900862985276
C        -1.16597037903214    2.23397478857572   11.18487665844141
H        -1.98291121556124    2.42932241335754   10.49337181984800
H        -0.24278466391448    2.14574856806309   10.61537355245347
H        -1.06301998415644    3.08424718506499   11.85513178401751
C        -0.01342098105576    1.41487457964509   14.16902255056522
C        -0.74996573234058    2.47356478016151   14.71523031020460
C        -2.24289446922212    2.52183721094529   14.57555836907197
H        -2.57823351434459    2.67186070966919   13.55145423192204
H        -2.64354945233953    3.32159318784659   15.18792057602107
C        -2.85751465015203    1.22242633039910   15.11532532648238
H        -2.45241619637145    0.34833422731882   14.60757023225449
H        -2.64885318128568    1.13442319401476   16.18172027232164
C        -4.37034914415453    1.23470209305563   14.91910989661036
H        -4.82454848208084    0.30847465517198   15.34248435988809
C        -6.02664982335990    1.29615475281701   13.27163709919653
H        -6.48929811203568    0.36183374811615   13.62989668085647
H        -6.12086191793368    1.34927857407124   12.18556075208450
C        -6.68220779835382    2.49370765896904   13.95979941210630
H        -7.76340750199772    2.46791859704029   13.83286725965620
H        -6.28647092091053    3.41499112506138   13.53016463482326
C        -6.30709872507486    2.42924943378074   15.44072858664945
H        -6.61125304136551    3.32999087579929   15.97660254495266
H        -6.78364305771767    1.55154998758422   15.90776265379979
O        -4.64056883627865    1.26962333536701   13.54047711104321
O        -4.90568048321887    2.34313658560261   15.59072336287515
C        -0.09153746892545    3.45043743952853   15.47133141951047
C        -0.48400085483583    4.84009069049849   15.57591125909107
C        -1.58963529603497    5.55291380083942   14.85842045340730
H        -1.91720126394739    4.97287092887606   13.99667586599479
H        -1.18494476155144    6.49492412000387   14.47474477712860
C        -2.78933010132600    5.88401046819684   15.75048265559832
H        -3.55759154342505    6.38750019119739   15.16694710731913
H        -2.48843593946907    6.54282577635675   16.56045105005223
H        -3.22494398677406    4.98810688031974   16.18758742924474
C         0.48761434906697    5.45874967117881   16.31110012953643
C         0.58213581345635    6.89371989166776   16.71142197065824
H         0.00303706402604    7.50520545095474   16.01651772970295
H         1.62311094795712    7.22187937381180   16.65540353049841
C         0.05658414093162    7.12359109263189   18.13165108757513
H         0.13197044734586    8.17629057808946   18.39688814127807
H         0.62447526307539    6.54063072553448   18.85248901232565
H        -0.98493408682209    6.82087194940758   18.20703685224806
C         1.42963787898038    4.44374571016878   16.69011757789211
C         2.43339517973781    4.63679992889502   17.62284005154140
H         2.58957790477793    5.63176923099032   18.00505971255723
C         3.15645290213314    3.59993747569310   18.17759663691734
C         3.99594423359094    3.72419999158381   19.34403054084024
C         4.33012718193336    5.01022139975888   20.02294819712561
H         4.69615002475606    4.80552300896367   21.03096670390404
H         3.43253828924409    5.62691377490460   20.11439639195445
C         5.39987318086166    5.78360156846295   19.24815118690466
H         5.62645446045274    6.72363623324496   19.74696781232882
H         5.06077191486338    5.99678697181028   18.23719730634308
H         6.31412533661344    5.19848904271577   19.18083309413035
C         4.39763435318689    2.46275472943597   19.66464286464765
C         5.28448811836528    2.02332180611809   20.78148810063897
H         4.96561593395970    1.04303295174295   21.14263879819535
H         5.19844943529915    2.72656989918780   21.61281181262495
C         6.74713479789012    1.95200303613783   20.33633068216146
H         7.37763190106249    1.60282879281420   21.15136922052713
H         7.09517475099838    2.93412107820848   20.02562300680962
H         6.85634569102519    1.27234927084469   19.49427497957540
C         3.85575035109224    1.59201482918334   18.64995382379980
C         4.18420194429185    0.25577756516574   18.51724789540576
H         4.76981271237965   -0.21292346607006   19.29082702724838
C         3.90704458116582   -0.46255670885557   17.36893304773058
C         4.49313801967881   -1.74159169403425   17.05297126569602
C         5.37251347929175   -2.53426329461692   17.96235715654703
H         5.32296999772535   -3.58937812493549   17.68612737156299
H         5.01917636056204   -2.44401956991767   18.99183557566101
C         6.82533397776620   -2.05938146234031   17.87644639902194
H         7.45629908760393   -2.63653264775815   18.54912034051552
H         6.89916728051979   -1.00813095007652   18.14484367515733
H         7.20064423973972   -2.17527480309926   16.86213259198124
C         4.15295391497747   -2.01268294710998   15.76228892094023
C         4.49824032984381   -3.21446269265892   14.94695059531500
H         5.42612730803024   -3.65248196802142   15.31950293402101
H         4.66329081547560   -2.92239061833212   13.90741994367279
C         3.38444442596645   -4.26260878800794   15.01247033267431
H         3.63883486931890   -5.12869251847788   14.40501828817115
H         2.44717483445995   -3.84555084567770   14.65151907690147
H         3.23482343575647   -4.58966221226266   16.03902654402603
C         3.29952380598692   -0.93407019548697   15.33090257997560
C         2.64205114045222   -0.89608010500904   14.11746735314203
H         2.86507858775885   -1.65980680456600   13.39064139015759

