123
CSD_code = QAKLET | q = 0 | S = 0 | Stoichiometry = C48H70N4Ni | MND = 4
Ni        8.08384285551711    0.91278233649565   21.00082876825716
N         6.19629509570591    0.73191258583486   20.98733974792784
N         7.97125757294587    2.70797183669865   20.45984845593701
N         9.94003309619352    1.15488885946364   21.19438978797293
N         8.18397717736358   -0.83433633606491   21.71997332542940
C         5.42785107076379   -0.00032906152708   21.86954429260484
C         4.05270193468054    0.31509935996658   21.65428276183165
C         2.90807512391756   -0.28433329182883   22.39955062507377
H         2.06158012248225    0.40575427633294   22.38851186741328
H         3.19348944066657   -0.44556057092076   23.44175409087993
C         2.47510307355298   -1.61673984386750   21.78206609390654
H         1.65666549590171   -2.05275779655163   22.35105031449570
H         3.30630248268019   -2.31830766164545   21.77164468772755
H         2.14351981612676   -1.46829831901496   20.75730959015678
C         4.01597470791628    1.20897664707124   20.59841639391002
C         2.81895808189166    1.80248297231762   19.92948119156751
H         2.99667836650613    2.86132730680944   19.72227350643055
H         1.95830099884192    1.73501089795947   20.59775666674016
C         2.49346284958418    1.08657818292805   18.61694165331806
H         1.60837012734628    1.51988344111252   18.15563123687203
H         2.30783808499736    0.03018695901588   18.79716078740613
H         3.32411425440244    1.17102399078007   17.92022733233812
C         5.36229641598452    1.43529554002157   20.22754341058271
C         5.91523529126448    2.30953792632343   19.14877636298760
H         5.12223285145212    2.90382266439596   18.69213200868245
C         6.58587582200031    1.42497356780244   18.07912117850588
H         7.39901154407660    0.87422537099209   18.57735134417362
H         5.86251582789922    0.69514485180655   17.70701260171307
C         7.15334789677196    2.23669379846488   16.92161435315451
H         7.83297500097743    2.99576924166396   17.31541452537673
H         6.34062549223478    2.75309323115084   16.40326666255060
C         7.90481725979603    1.35287271709195   15.92894886361669
H         8.72347641716362    0.84979250651680   16.44845890320848
H         7.23106397904059    0.58175019898426   15.54701545813710
C         8.46389842116492    2.15889201897875   14.76323959892942
H         8.99874261916989    1.51246392890851   14.07120134954650
H         9.15176207678254    2.92051449521987   15.12386920973769
H         7.66124707858858    2.65311678517748   14.21976275574553
C         6.93485081051047    3.20211935244002   19.78702235985464
C         6.95237014977203    4.60782980032010   19.80462947881865
C         5.90770164186377    5.48427143072184   19.18937464756439
H         5.55126309499464    5.02805887587541   18.26272085682654
H         6.32990924050965    6.45617420051202   18.93021097803647
C         4.72758489151547    5.68099134545896   20.14427187053576
H         3.94736510616527    6.27638720606727   19.67397863202861
H         5.05175915215079    6.18833484484465   21.05025082434021
H         4.30966823603755    4.71918613122346   20.43317914752677
C         8.06494795419695    4.98432289452070   20.54054120876876
C         8.36923348811344    6.43128008099781   20.78967054204485
H         7.42029305652746    6.97196265838450   20.80606309520877
H         8.82818863106415    6.59086195850700   21.76365706454344
C         9.23674576154976    7.03163280821398   19.67729833339197
H         9.44818697034404    8.07897548564467   19.88435628280280
H         8.71842020466044    6.96555703464247   18.72340406660456
H        10.18093898661460    6.50050596359934   19.57558067122141
C         8.73692165288935    3.77069191308086   20.92092214404835
C         9.99240612638446    3.57053323494352   21.52336315145286
C        10.73381702562881    4.76326364491542   22.04765191268571
H        11.80288978618658    4.61480788901975   21.96716895253958
H        10.49970483620208    5.64423393894877   21.46460568675590
C        10.35591294289961    5.00565599070686   23.51546426694476
H        10.59358064308081    4.11544307213597   24.10256195541706
H         9.27698524350476    5.16035934850844   23.58963924855674
C        11.08902160729578    6.21313206438660   24.09393846993596
H        12.16766199762472    6.05581218871764   24.01524959143941
H        10.84453747464815    7.10239377247308   23.50754892397398
C        10.71806434092011    6.45151328967166   25.55232424685974
H        11.24841439516331    7.31503235404839   25.94720719631340
H        10.97437318617523    5.58437582928106   26.15720489359144
H         9.64936992711438    6.63035627613519   25.64931925600856
C        10.59202876506327    2.30236148524639   21.62475282606893
C        11.93338684522756    1.92831882447301   21.98875489803922
C        13.05119651090438    2.70639512692991   22.61453625614942
H        13.62385960440830    2.01903555559178   23.24331040014396
H        12.67734797588426    3.48275518619267   23.27909812594225
C        14.00701587904338    3.30075833306042   21.57457590714950
H        14.77293917342843    3.90034058101525   22.06286958826489
H        13.47825732073993    3.92779226201105   20.85940846732004
H        14.49621796691561    2.50445137512394   21.01994164135780
C        12.06411228634994    0.58054810125086   21.68827894378275
C        13.27519766812858   -0.29056439184982   21.79085945380470
H        12.99972372486189   -1.25378828844294   22.22943046916199
H        14.01544763394685    0.16782448660583   22.44811101702436
C        13.91004387725479   -0.53255739303317   20.41928062695118
H        14.80248487873915   -1.14767390023152   20.51640555193827
H        14.18864140064552    0.41158428903625   19.95672134210102
H        13.21144154363332   -1.03808290658644   19.75710762532423
C        10.81211603549571    0.15064423998111   21.21264926192977
C        10.41340650158847   -1.23534354358506   20.80903930669028
H        11.24348556328063   -1.92875454314504   20.95168211849049
C         9.98470002465102   -1.22890777072786   19.32849295207815
H         9.13952592853538   -0.52821039642878   19.23932857024136
H        10.80576992576252   -0.84583264127222   18.71742123256215
C         9.56077894638974   -2.60549957020371   18.83271803850519
H         8.77927342393882   -2.99777325550238   19.48744491082761
H        10.41160129568295   -3.29075161374120   18.88159451094344
C         9.03667357251772   -2.55130877503648   17.39969352446048
H         8.18015600067663   -1.87456921547175   17.35892254509782
H         9.81142453715604   -2.14504166284226   16.74462911111824
C         8.61909122237089   -3.92760232430782   16.89722711767912
H         8.24468687049809   -3.86685749925009   15.87793698611061
H         7.83426579582125   -4.33962442219528   17.52781140769221
H         9.46405406915391   -4.61293388424473   16.91175956986642
C         9.25484639897526   -1.62104493945403   21.67224756273243
C         9.08747071418242   -2.76112695121719   22.49244194276996
C        10.10129839688650   -3.83681632861082   22.71231929361566
H        10.66878353299986   -4.00143701470112   21.79330980701515
H         9.59834845680120   -4.77254442457599   22.96366246856860
C        11.06054265921692   -3.45788231564935   23.84301311411255
H        11.82026595891588   -4.22533129938117   23.97711147697630
H        10.51554201321737   -3.34094359400896   24.77703030776463
H        11.55187615027148   -2.51274081041866   23.62196941182154
C         7.83759457727080   -2.63994953530158   23.07233335131315
C         7.15321030526277   -3.60320887901307   23.98330279583138
H         6.51789017119656   -3.05930292242543   24.68604142879311
H         7.89846457484474   -4.15213875355147   24.56208048632972
C         6.29888837212512   -4.59749742782314   23.19157787005251
H         5.79925574753093   -5.29197716421565   23.86371561146847
H         6.92094419091779   -5.16614282659513   22.50388115947601
H         5.54522117190010   -4.07146326497788   22.60985225321265
C         7.26508884645934   -1.44055571536641   22.55305500926212
C         5.95448850609823   -1.00428723524905   22.66706614360928
H         5.28922209962436   -1.54027293974961   23.32780247893654

