60
CSD_code = QAKPIC | q = 0 | S = 0 | Stoichiometry = C23H28FeN4S4 | MND = 6
Fe       -6.87873442169152   -1.55013609733855   -7.13439479905235
S        -8.62023259369591   -2.73841996328734   -6.28059266324104
S        -6.84562419547922   -2.88860121557284   -8.88877303087410
S        -7.06099166043082   -0.09707915601430   -5.48156224047138
S        -5.11063418906004   -0.36703531985563   -7.94959995326494
N        -8.06218517780291   -0.47975163541222   -8.08450193052676
N       -10.79788100849403    1.86152742678470  -10.21471229309087
N        -5.63872883688930   -2.72626808321311   -6.08997402934390
N        -4.66247233802922   -3.38154198949155   -6.89751799323132
C        -9.18104396866556   -3.62959776702264   -7.64621787697956
C       -10.40491858706692   -4.30668246751280   -7.60219072376708
C       -10.85268985054287   -5.01704562007514   -8.69334327518849
C       -10.09202827705740   -5.08660148923509   -9.85482995638417
C        -8.87206843636355   -4.43835998045944   -9.90820145704726
C        -8.43147322152156   -3.70317097450427   -8.82198004268880
C        -7.26384865158826   -1.55925611678226  -10.07257216514765
C        -5.23274989120934    1.13802712575554   -7.12132638975668
C        -4.45696294253216    2.23578126239168   -7.51319740396987
C        -4.55316770348541    3.43633117069066   -6.84709773434847
C        -5.41264014678511    3.58039143216193   -5.76329664020118
C        -6.17283364131192    2.50211973253031   -5.35108133906402
C        -6.09596525655346    1.30149640744451   -6.03482484964371
C        -8.72129123612119    0.47338330015284   -5.97953976921674
C        -8.18088755453315   -0.58863291055311   -9.41262308872480
C        -9.07818281875006    0.15399870112844  -10.14775027289845
C        -9.90557624666939    1.10273723062955   -9.52183277105657
C        -9.74512309074036    1.21096184670687   -8.12961590814936
C        -8.84480810281124    0.40865208071838   -7.46360681701265
C       -11.09915350355431    1.60553092255589  -11.60580207552279
C       -10.17007117527633    2.36203984035687  -12.55665836141202
C       -11.50730093980402    2.96027147543558   -9.59783936608692
C       -12.81933449579634    2.52087395320594   -8.94564195730033
H        -5.21953793145525   -2.19255958236915   -5.32067480729205
H        -6.22877433324119   -3.44618512949089   -5.66628017203167
H        -4.24296688398903   -2.67926210282292   -7.50339342433811
H        -3.92369215957629   -3.79738952068073   -6.33106593818615
H       -10.98738241042782   -4.25563264860582   -6.69464570966534
H       -11.80368161915075   -5.52774256272074   -8.64371662742139
H       -10.44489706254033   -5.64896026574973  -10.70601143585917
H        -8.25482722534783   -4.49770048760045  -10.79330103456527
H        -7.68655299719512   -1.98548883512947  -10.98060124971244
H        -6.30473057112035   -1.08666164675979  -10.28970798364265
H        -3.78552035883892    2.11584309089203   -8.34999381660683
H        -3.95144243388983    4.27429923722516   -7.16847575484474
H        -5.48094141539969    4.52261710875619   -5.24120275967225
H        -6.83146368937953    2.58560046978424   -4.49813012082818
H        -8.90273431509777    1.47244220006401   -5.58609244393316
H        -9.39861627489049   -0.24428930766449   -5.51389804457929
H        -9.10384300284880    0.00099786490496  -11.21297666580768
H       -10.33675971547463    1.89522313504559   -7.54591769583825
H       -11.04370516728103    0.53144349468206  -11.79847190101351
H       -12.13218450076897    1.91427418002703  -11.78802285148436
H       -10.43141036399002    2.14029593495017  -13.58795531484176
H       -10.25802851386180    3.43453177668620  -12.39990482231259
H        -9.13454070790179    2.07867551585275  -12.38795497231540
H       -10.86124147515492    3.44155646799393   -8.85968800657954
H       -11.71940343666720    3.70058102484740  -10.37414165186021
H       -13.48387927524521    2.08342775262766   -9.68694395977570
H       -12.63491600940835    1.77687687008788   -8.17522233245344
H       -13.31702198953963    3.37614284283701   -8.49630932787072

