60
CSD_code = QAKPOI | q = 0 | S = 0 | Stoichiometry = C23H28N4RuS4 | MND = 6
Ru        5.15005025977813    1.62594041714158    7.08165822304315
S         3.29594262759495    2.93968685363417    6.26004822169691
S         5.11285937453586    2.97237620910486    8.98498524077787
S         4.91262368591436    0.04080269330981    5.39199579269073
S         7.01172613111890    0.29763868509686    7.88824740498610
N         3.89228232593744    0.48613896450077    8.07715613081168
N         1.15128109751493   -1.86868910392340   10.18059718153682
N         6.49729839788618    2.90037955370309    5.98842059673828
N         7.47165810115866    3.49894154577375    6.84511982697904
C         2.77086036715747    3.74128528532811    7.69774003247787
C         1.54430085749273    4.41878031434391    7.68503218542167
C         1.08821247469881    5.08122637332207    8.80097621181322
C         1.84396299790872    5.10317885950757    9.96821782404746
C         3.06281953328969    4.45479908045050    9.99627670107140
C         3.51393930945574    3.76503410673711    8.88215926424674
C         4.68276130647728    1.56025706809750   10.08814983458806
C         6.76104446047724   -1.19774996714914    7.06265720862954
C         7.49879897312718   -2.32273691408699    7.45525813550308
C         7.34103721205851   -3.53155670280635    6.81852072468605
C         6.45186731249560   -3.66132363079621    5.75680793420947
C         5.72823852854431   -2.56073657349615    5.34274006670064
C         5.86479393775762   -1.34805902627754    5.99927656643122
C         3.23548596054167   -0.45801727671397    5.95358405394000
C         3.76157780947907    0.59890695668036    9.40845197540369
C         2.85407159534616   -0.14453978323434   10.13112725112677
C         2.04451496200194   -1.10393924394429    9.49615994296171
C         2.22134155697485   -1.21734444682393    8.10546863198167
C         3.11727131336061   -0.40617313716871    7.44316764584516
C         0.81557815309010   -1.59901590646847   11.56140006064726
C         1.73008318139825   -2.33192101374128   12.54427531229438
C         0.47687081516199   -2.99091668744921    9.56619622992821
C        -0.83647002054525   -2.59227056252995    8.89106525559053
H         6.91843705510483    2.37316239635208    5.20835948949433
H         5.92975316536578    3.65464988641930    5.58423524540658
H         7.85244160745142    2.77020426760550    7.44993547407281
H         8.23982118882683    3.91220177895535    6.31436975445612
H         0.96758937390139    4.40619463028899    6.77232890147024
H         0.13717423010059    5.59279018806041    8.76679976504415
H         1.48843012637389    5.62921429431242   10.84106488524921
H         3.67858305072414    4.47623781119647   10.88412668690544
H         5.65150217493070    1.08768901995858   10.27441646278151
H         4.26698610693780    1.94500044871271   11.01855582294245
H         8.19458183414744   -2.21186808832605    8.27335792963023
H         7.91758369304520   -4.38540527026116    7.14361521679588
H         6.33384565149102   -4.60873464383615    5.25352661152908
H         5.04784502236932   -2.63100099052315    4.50587039914908
H         3.00427752509070   -1.44448005023519    5.55270967927132
H         2.58727282407428    0.29640438221379    5.49881414783420
H         2.81055279822547    0.01061031296764   11.19548008435192
H         1.63999095136181   -1.90886757638228    7.51998262416992
H         0.85376484097095   -0.52188093885323   11.74068145785302
H        -0.21775000427732   -1.91789990143742   11.72342554574449
H         1.44278528951268   -2.09666488047488   13.56561314899653
H         2.76671902876119   -2.04154294543727   12.39540625640630
H         1.65573880020008   -3.40753383613373   12.40285663652774
H         1.14513697380999   -3.46453346606953    8.84305104398932
H         0.27191838061678   -3.72716835473221   10.34829407537900
H        -0.66065103731093   -1.85601951825201    8.11126510055706
H        -1.30789689969138   -3.46610613499446    8.44920854623289
H        -1.52071835129424   -2.15973581121309    9.61711133895474

