157
CSD_code = QAKQAV | q = 0 | S = 0 | Stoichiometry = C70H78Cl2NiO4P2 | MND = 4
Ni        1.19400244090279    0.15387737737067    6.22853503888415
P        -0.91328618212766    0.41470335895207    6.66942488305128
P         3.16210342550619   -0.60129877542596    5.74995678301911
Cl        0.51958362855453   -1.49248283583926    5.02913117472993
Cl        1.85102985512725    1.33573406580059    7.80899907813104
O         2.29349559916102    0.93981433056660    3.96701623248704
O        -0.20526547485880    3.90397103101711    6.04948656756181
H        -0.58123975229117    3.11746016732106    5.61123692190331
C        -1.80763928002421    0.70002992752405    5.07768004099068
H        -1.77426624403779   -0.18535323969873    4.43218922940365
H        -2.85094411058413    1.02030583690530    5.20989398572213
O        -1.01655344109979    1.75137462363882    4.53632716161330
C         3.16865983343883   -0.17696893336471    3.94468809645572
H         4.16558313989512    0.08639027256400    3.56631181596006
H         2.74833041399748   -0.99493378901685    3.34104764147128
C         3.35594123333251    2.59489909800964    2.56095437076949
O         2.40250082146200    3.35976051849334    5.33693173068439
H         1.58476798761221    3.58120736306591    5.82001082399599
C         4.43344666608367    2.88602349094815    3.57463626766853
H         5.41865701198636    2.84027639509906    3.10494900193224
H         4.39223515772965    2.17594937267311    4.39631727695110
C         1.27820186810268    1.58534495751460    1.87032171643589
C         4.17787607396356    4.27337588625218    4.10829782897296
C         2.31033002157895    1.70271836526505    2.80464552463816
C         3.08737292790897    4.46048237477616    4.96501906661090
C         3.56089505962135    6.81104355672383    4.96558583282346
H         3.30380369111629    7.79978730956766    5.31659086856912
C         4.76209218459727    0.06545856136547    6.32796296586925
C        -1.72404212812798    5.16375384168039    4.64085651693155
C         2.78019351407306    5.75237744833814    5.40059926624139
C         4.84977450068206    1.42537445229751    6.61361150651326
H         3.96708201143264    2.04320486726359    6.54466728414154
C        -1.58042479362307   -1.13387131986322    7.35473106799237
C        -1.80466994988023    1.60492930095015    7.74487682248376
C         0.32793272436218    6.12765805530373    5.46994998510347
C         0.07649961877123    0.69305534291370    2.10742498889835
H         0.20053429309094    0.17136957030307    3.05495954891737
H        -0.00245553509744   -0.04044648985521    1.30153866493761
C        -2.73219428478174    4.03562342524769    4.55651130942747
H        -3.73479282624504    4.46446416240931    4.50518080511169
H        -2.67776960026268    3.41812095683969    5.45640040162262
C         3.41970501623921   -2.39849552603219    5.82493140537314
C        -1.15353352167917    2.63116212236421    8.41624998426922
H        -0.08194742837978    2.72363785807623    8.33748706199835
C         1.59037083957587    6.02259012552627    6.29332380307645
H         1.75158277765514    6.96739028847967    6.81591890747943
H         1.47912697209851    5.23746269349567    7.04342711242797
C        -1.14070972970354    1.57694776153931    2.13143333379252
C        -1.09062115274546    7.42066341432474    3.99032304558545
C        -1.53042720261572    2.19687200479699    3.31713048375476
C         3.36766968918789    3.33646374262043    1.38770562554316
H         4.18543270764760    4.02407888934883    1.24934567456674
C         6.05619841009072    1.97816194442688    7.00415570387105
H         6.11510398505668    3.03593280205924    7.21305732384184
C        -0.54321088977737    5.04139628023387    5.37412476823558
C         1.32657800222377    2.34929146751598    0.71463125963089
H         0.51195351087302    2.25584345870997    0.01520377634326
C         0.04609894896884    7.29217445826400    4.77449892974905
H         0.75150167285867    8.10214114166881    4.85640995525992
C         2.36532141233620    3.22840162705671    0.43957219985317
C        -2.46793934163385    3.22527378759197    3.31134066827973
C         4.11990399950257   -3.09728666650408    4.84875042320611
H         4.54224738944760   -2.56986338633458    4.00453438149749
C        -1.82772612407669    1.89675986859363    0.97065203159727
H        -1.57317547569569    1.36214261405541    0.06745327475427
C         4.64758842465217    6.64693560215869    4.11587267029039
C        -3.09626327493478    3.54918350415650    2.11625111889702
H        -3.82211370280320    4.34515301230129    2.13210870812270
C        -0.95640141720979   -1.60036588307938    8.50857935257462
H        -0.13304775337651   -1.03176990636301    8.92611684922191
C         5.88761417847590   -0.73918678525557    6.47261100443353
H         5.82824960805295   -1.80058831035589    6.27953723704912
C         4.93647737672422    5.35491599584489    3.69854220821340
H         5.76805211023538    5.16384759765000    3.03882796130970
C         4.27511110441223   -4.46752003979349    4.96209897527026
H         4.81753334905161   -5.01056450572604    4.20162904322489
C        -1.96862261067792    6.34418404163725    3.95869875184034
H        -2.88292110529580    6.41409361421875    3.38874913545596
C        -3.25377615857986    3.39974630487308    9.29206614352111
H        -3.82002569951464    4.10163275792524    9.88661909006478
C         7.08915472946950   -0.18115376154447    6.87102593932724
H         7.95956423936890   -0.81202035464498    6.98108617335943
C         3.03571198476883   -4.44979670651522    7.01821115080640
H         2.60858756352183   -4.97741917287885    7.85823012986162
C         2.87828084195750   -3.08124059306085    6.90799725519808
H         2.31883592368099   -2.52752403288854    7.65288422583965
C         7.17826986985158    1.17695933669918    7.13019082843514
H         8.12039237030170    1.60566411616200    7.43932360733901
C        -2.42387114144849   -3.49142927545360    8.54727898644880
H        -2.75304847011478   -4.41165077277368    9.00697271684924
C        -2.62500791853332   -1.85841283608624    6.79686941942859
H        -3.10416388561732   -1.51734847846947    5.89036518337252
C        -1.88061376185470    3.52678008095089    9.18291161232093
H        -1.36876443952330    4.32807551433352    9.69429668791434
C         5.44622411051646    7.86441504020392    3.67491846366375
C         2.33032307637128    4.06835606121530   -0.82703543490307
C        -3.18484602649681    1.46542783651236    7.87702772197385
H        -3.69571372416778    0.64783749655929    7.38518465700796
C         3.73531310091583   -5.14351743476710    6.04415351632630
H         3.85596238566089   -6.21377392690855    6.12454805458167
C        -1.37659765033894   -2.77398296132407    9.10336747496985
H        -0.88710562941857   -3.13352146438002    9.99679893167941
C        -3.90459922043095    2.36078827967515    8.64429826992447
H        -4.97508121190471    2.24773075672034    8.73922331576092
C        -2.83261701347750    2.85885212811877    0.94226748951086
C        -3.04341151739344   -3.03367031283676    7.39677986210523
H        -3.85475735647714   -3.59763570599468    6.95944856282996
C        -1.40777661930340    8.67139362554840    3.18507980741049
C        -3.58665190808425    3.11644574376104   -0.35410328780436
C         6.58737238793025    7.50644917169080    2.71881366354717
H         7.12049952767244    8.41159630594024    2.43366369246706
H         6.20637837088019    7.04179457213606    1.81213294944515
H         7.29790599231527    6.83350487408097    3.19306554733802
C        -2.72590938416171    9.27652844375167    3.68730986563191
H        -3.55020263289437    8.57792540851236    3.57314648959553
H        -2.96334630167484   10.17897850686439    3.12756889825672
H        -2.64267529860661    9.53467643672327    4.74094396639666
C         1.15726801771607    5.05127582271166   -0.70857136560143
H         0.21960046458918    4.52069717747352   -0.56912833872813
H         1.08224557209735    5.66285209160381   -1.60562300893557
H         1.30383237492706    5.70506266766396    0.14891384047906
C         6.05361898242244    8.54553967118873    4.90892545799654
H         5.28143749563002    8.86710588567876    5.60214100229663
H         6.63152315277107    9.41870474963562    4.61209868958056
H         6.71273650255194    7.85519514783631    5.43106452790900
C        -4.29186477562615    1.81921516180834   -0.77586848874141
H        -3.57850464812952    1.01754484787608   -0.94539845822579
H        -4.85111933511644    1.97817088435953   -1.69538344702080
H        -4.98527144964686    1.49938915777460   -0.00077757516093
C        -1.54145993202441    8.28814279704122    1.70430217449542
H        -2.34864630556133    7.57754305656929    1.55022111219675
H        -0.61847491733652    7.83350137834450    1.35060408111871
H        -1.74569514712389    9.17194993345494    1.10325005850616
C         3.61722242077426    4.87159029647438   -1.03456380860904
H         4.48195654870089    4.21381520822202   -1.08528702217098
H         3.76265807022494    5.59075393351231   -0.23221186761021
H         3.55510891454528    5.42308698171178   -1.97074746889843
C         4.50858658762339    8.84190014445528    2.95138087234638
H         3.71753737713599    9.19084059727654    3.60916025686773
H         4.04761986391518    8.35422612754082    2.09458335811446
H         5.06463882650475    9.70846828315369    2.59890721709259
C        -2.60145725280443    3.55050256057712   -1.44770109248130
H        -1.85526790449569    2.78443172860280   -1.63950104456978
H        -2.09042180494539    4.46409006052395   -1.15097352449731
H        -3.13449605071718    3.74121392307154   -2.37678490132438
C        -0.31554844298684    9.73776954673015    3.30247496930211
H        -0.20920955782558   10.07684938221056    4.33026712488402
H        -0.58046184576395   10.59842965666380    2.69129883218381
H         0.63994505483199    9.35551123069559    2.95078746433971
C        -4.64710688495944    4.21173219328304   -0.21258133176405
H        -5.38970663184310    3.94412084310060    0.53552001189803
H        -5.16064242330415    4.34338388238090   -1.16281163583644
H        -4.19276805257227    5.16249653487326    0.05653949523108
C         2.13213395346688    3.16424229988400   -2.05101525763164
H         2.92825951278443    2.42467951601477   -2.10515459048506
H         2.15030033139189    3.75865848136071   -2.96214498508854
H         1.18123697698069    2.64123015713249   -2.01098320679227

