81
CSD_code = QAKTEE | q = 0 | S = 0 | Stoichiometry = C43H33CuNP3 | MND = 4
C        -1.02267944665606   -2.86967155863232    6.97538676921124
C        -0.97508379223987   -1.56387801780852   11.15516626621159
C        -1.04523728709456   -1.18078243084052   12.48894693649391
H        -1.79392143172633   -1.61451386457274   13.13741886167321
C        -0.15345044796128   -0.24622818874432   12.98440139006190
H        -0.20928580577049    0.04734360819044   14.02290069247632
C         0.80614304443902    0.31287113776605   12.15765881968710
H         1.49706151915922    1.04478593521649   12.54959635370509
C         0.88518294123965   -0.07221492888474   10.82790513124669
H         1.63983351150487    0.35530657252322   10.18323054948672
C        -0.00274363174577   -1.00353144652632   10.32684418584091
H         0.05124189235145   -1.31920992679317    9.29025720712361
C        -1.17297024308856   -4.11078108508316    9.92778210673974
C         0.15625888011452   -4.29853442505024   10.28162027326528
H         0.68133544308270   -3.54683694813021   10.85469944054057
C         0.81080536780780   -5.45108725953946    9.88389872844051
H         1.84802800995607   -5.59378607204709   10.15130602844850
C         0.14842622125859   -6.41334719114336    9.14170743264576
H         0.67065886492996   -7.30480769977587    8.82747680806298
C        -1.18012200996240   -6.23057836652182    8.79264606170011
H        -1.69519545356554   -6.97743779974692    8.20692430959767
C        -1.83727834316934   -5.08132781283376    9.18117520413058
H        -2.87054854694995   -4.91212737368923    8.90050071154040
C        -3.11242889566800   -3.35869942324507   11.75857434280117
C        -2.65317953181738   -4.26447111564622   12.70177971650233
H        -1.62311146299403   -4.59372455459214   12.68034640010327
C        -3.53076112577691   -4.73838795392158   13.66287483552598
H        -3.18385433788644   -5.44209975259573   14.40567219828435
C        -4.85416173091356   -4.32226251181068   13.67411000814576
H        -5.52940335323636   -4.70527803037121   14.42577776960608
C        -5.32308927832890   -3.42558879496307   12.72709684088251
H        -6.35818790052086   -3.11238691034888   12.73366884712496
C        -4.44744039758273   -2.94194473045800   11.76778471832315
C        -6.56571913150621   -1.43358407204788   10.68308447620063
C        -7.42612509473149   -2.43704687177601   10.24219414134995
H        -7.00131238616821   -3.34734053063880    9.83548228667697
C        -8.79463868380679   -2.27696726635696   10.32767666825554
H        -9.45514710107970   -3.06279626280298    9.99058209425234
C        -9.31838419682867   -1.10012209580701   10.83957724436393
H       -10.38848849920542   -0.96776948023390   10.90362935661190
C        -8.46945479770107   -0.09305225753310   11.26480450434402
H        -8.87807461245874    0.82574538236135   11.66084209599159
C        -7.09714027911039   -0.25264474152095   11.18349465382921
H        -6.44217112198358    0.54151013068982   11.51380277665291
C        -4.01990257683406   -0.29068794134228   11.14228280200118
C        -4.02559523571814    0.01903628594581   12.49471313931788
H        -4.52368013964469   -0.63828773749277   13.19554382788532
C        -3.39088120105031    1.16758019155864   12.93490018320597
H        -3.39205477402479    1.41247631745167   13.98713942784506
C        -2.75052654784538    2.00241174778570   12.03207362002377
H        -2.25165457541474    2.89337834101310   12.38432015765492
C        -2.74576530392776    1.70633128770002   10.67956769917109
H        -2.24905792741416    2.36593841702998    9.98185507495998
C        -3.38787007284042    0.56074578582959   10.23127936193155
C        -5.25697718783240    0.20841658510156    8.16806318159479
C        -5.94224030324905    1.33439175065088    8.61216429650163
H        -5.41242687855731    2.10864608817559    9.15175175907712
C        -7.29641633867635    1.45328443051838    8.36017630421028
H        -7.83289897246599    2.32378216244770    8.70885860382270
C        -7.96731095866501    0.45774084584767    7.66827360304817
H        -9.02700809763415    0.55235312562726    7.48355723273299
C        -7.28393572997372   -0.65978685228212    7.21719756675187
H        -7.80861789595652   -1.43397767747424    6.67727298145225
C        -5.93054104079547   -0.78639147262526    7.46779629999843
H        -5.38066481551575   -1.65778584965450    7.13289781667831
C        -2.71707743915474    1.33318224865941    7.58423682236990
C        -3.38869338017595    2.11074045319120    6.64874920732496
H        -4.44516784449976    1.96085474011505    6.47581731856882
C        -2.70059504052418    3.07795524712348    5.93619770671939
H        -3.22661552471006    3.68258972004626    5.21177534526257
C        -1.34559022288831    3.26997824768719    6.14461213040841
H        -0.81460687383642    4.02545886612029    5.58481028306235
C        -0.66647825816500    2.48202162492267    7.06167203909557
H         0.39385547509874    2.61967988983008    7.21477705895200
C        -1.34608388994386    1.51093148579011    7.76944440181343
H        -0.82223723208034    0.87541415350449    8.47353473231486
N        -0.25313444163762   -3.53787769476178    6.43296875314781
P        -2.18109646219463   -2.65439129135072   10.35255087008110
P        -4.78493721016620   -1.77048386884527   10.40553698878942
P        -3.48649826084927   -0.02855550349397    8.51621379816413
Cu       -2.22930215685351   -1.79320716407539    7.95261135987482

