25
CSD_code = QAKVOQ | q = 0 | S = 0 | Stoichiometry = C10H10IrNO3 | MND = 4
Ir        4.74475362773139    6.23208921729835    2.80281154038149
N         3.14328885624078    5.45617268743163    3.84196841695179
C         1.84627368918024    5.75506177355922    3.69149508754480
H         1.60459667243775    6.49403489066958    2.94073555574493
C         0.84543543867440    5.17116903820546    4.43697516155205
H        -0.18261440926062    5.45063531380151    4.27244823478280
C         1.19045292654329    4.22435866294187    5.39419708495353
H         0.43337223941755    3.74568242199024    5.99671132576032
C         2.52404778604295    3.91200641090434    5.55526775276423
H         2.83252441429248    3.18297414672039    6.28721164787324
C         3.48182147091356    4.54256756015098    4.76594093910213
C         4.96749404492171    4.26229580367148    4.88166751768898
O         5.67873923782457    5.00009823558272    3.97219055157032
C         5.42502199802212    4.62825500814589    6.31371099518172
H         6.49971194427647    4.48051558205050    6.37599092920270
H         4.93226415584079    4.01481930564955    7.06325319874161
H         5.21132823300784    5.67772300545554    6.50759709138581
C         5.21713166926954    2.75713955785942    4.63028166665204
H         4.83593102106447    2.48152697776852    3.64897194218001
H         4.74581358767024    2.13765264415211    5.38828404477460
H         6.28999290927091    2.58511984080802    4.64094215619719
C         6.31238789035557    6.81228445602346    1.97906785826236
O         7.28079313310412    7.16622549044839    1.47653830136587
C         3.73918537065630    7.37370587191196    1.73904546662762
O         3.07505209250169    8.07218609679887    1.10019553275786

