43
CSD_code = QAKWIJ | q = 0 | S = 0 | Stoichiometry = C18H20N4Pd | MND = 4
Pd        4.51502146407259    6.70639850471682   21.05566608231392
N         3.09590049615068    5.36477145526571   21.15237853139531
N         5.37540374467718    5.66311755566197   22.46779968664903
N         5.90532350673575    8.06951112678454   20.98292490441274
N         3.64482006840300    7.77284188413149   19.67672479064743
C         3.54132850554732    4.25117122633892   21.86381737104104
C         4.76883808506042    4.41168644518591   22.57161905840918
C         5.35134500944455    3.29750210322287   23.16687035952113
H         6.32676927011316    3.36891347928863   23.61711187763581
C         4.73135821614832    2.05635761197707   23.12325014644795
H         5.20405328819364    1.20986907822143   23.59855709008138
C         3.54451884801842    1.90128850358678   22.43960671515534
H         3.07446224975624    0.93155881517383   22.37206239353583
C         2.96761911167695    2.98583268148666   21.79335851505810
H         2.09857195552403    2.81585450718934   21.18089372968724
C         6.30271824935854    6.17359654395406   23.26435464501705
C         7.07725148165140    7.28681394625987   22.90487715490937
H         7.87738930840570    7.52909079697249   23.58944278868792
C         6.94919886603934    8.13025457067970   21.79725082289415
C         6.58207322047168    5.61568761934360   24.64081417053511
H         5.73071894097661    5.05139235264244   25.01328440788767
H         6.78092628774740    6.43881723848359   25.32455693321669
H         7.46175755684544    4.97276137709364   24.63681204524954
C         8.01472084554724    9.17699945932967   21.58287694814959
H         8.40218685757722    9.11930800653522   20.56659996611433
H         8.83800898981815    9.03326150004010   22.27573217512276
H         7.60393615145257   10.17492906538445   21.73640729319940
C         5.62117714033216    8.97348978845559   19.99058713960904
H         6.28260114268223    9.80708308830096   19.78991714085212
C         4.45461732364202    8.82021260241752   19.31621046603636
H         4.14660660631193    9.52663715155039   18.55546633891923
C         2.43708524708842    7.53516072473136   19.18556967273650
C         1.59129204596814    6.56470566874544   19.73112509245960
H         0.57509943937550    6.56735586067918   19.36373741329636
C         1.87052329246788    5.59214769496714   20.70287462321413
C         1.90839816397204    8.36829370243558   18.04395494889051
H         1.78246163543198    9.40515740138455   18.35578450511892
H         0.94799333275713    7.99092579542339   17.70673866134881
H         2.60395669025023    8.34537713770637   17.20604266570255
C         0.66630318400383    4.84169045689243   21.22319140540102
H         0.36942905720441    4.04639342963797   20.54009040515403
H        -0.17221250725838    5.53041668886598   21.30825186225763
H         0.86594763035718    4.41386535285542   22.20240705602866

