25
CSD_code = QAKXAE | q = 0 | S = 0 | Stoichiometry = C10H10IrNO3 | MND = 4
Ir        1.61190620919025    1.80101249595694    7.96667012277686
O         3.33633722642424    1.65294619486623   10.42988961395711
O         3.63596241494202    3.51923010111091    6.54406876748369
O         0.21067340341106    0.71275958590919    8.74754488615241
N         0.28227536531521    1.76394890891771    6.39272707628728
C         2.68197564877078    1.71353632717045    9.48982116181123
C         2.87720619831454    2.85683447211841    7.11264709937440
C         0.41156275248116    2.35236113884859    5.19628374449976
H         1.32065864289609    2.91246920039164    5.02913872600588
C        -0.54369978858675    2.26943585594509    4.20692576047892
H        -0.38613983127703    2.76381878643180    3.26203448570228
C        -1.70148755398713    1.54156548937533    4.45485116896082
H        -2.47237046511996    1.45563715919885    3.70400024295046
C        -1.84092492452909    0.93171659835031    5.68385209605270
H        -2.72395200367894    0.35786098449360    5.91495209220494
C        -0.83338087052070    1.05767442544211    6.63627689136914
C        -0.90520765650802    0.41801844192175    8.00917698682460
C        -2.16101987604658    0.94634158257011    8.74094672883908
H        -2.16399216177281    0.53869938595635    9.74818676204773
H        -3.07619628044007    0.65597911264890    8.23227161262592
H        -2.11427647818289    2.03143406472963    8.81057631106682
C        -1.01741954812199   -1.11488099705829    7.83451732616639
H        -0.15185760776350   -1.48359201483313    7.28733143125624
H        -1.92480874939033   -1.39515151136106    7.30649382612933
H        -1.01852406581936   -1.57105578910140    8.82071507897576

