29
CSD_code = QAKXIM | q = 0 | S = 0 | Stoichiometry = C8H14Br2N4Pt | MND = 6
Pt       11.96225979124071   11.08752177089814   -2.53690826918485
Br       11.07869471857600   13.24548233593514   -3.51710112824852
Br       12.64211695893986    8.86217317116029   -1.54354618491386
N        14.17233195616096   10.88824466499363   -4.70653480876143
N        13.84939507894045   12.62606753403017   -0.61209393029705
N        10.41442902739360   10.00020789902956   -3.74991460371060
H        10.04562115336864   10.64676111677938   -4.45264364488737
H        10.77967572350476    9.18813123899259   -4.24910995941345
N        10.21154937573998   11.08758461349080   -1.12713400208062
H        10.38075520305375   10.37993644011747   -0.40705936080997
H        10.07096284506799   11.97795864465621   -0.64809383362073
C        13.39790071271300   10.99330288741704   -3.87621658034124
C        13.19858539321972   12.05884655217913   -1.35712624417389
C         9.32280602791716    9.58283095500312   -2.85244343435131
H         9.68206436320535    8.72428627863306   -2.27029794815640
C         8.99745624729830   10.73190584983797   -1.88289795566655
H         8.70180003918264   11.61189980392178   -2.46884384146028
C         7.85403833111864   10.32944758106960   -0.94897403820802
H         8.17399022369849    9.48276027279836   -0.33469364220658
H         7.61717831675708   11.16168321982819   -0.28240035541244
C         6.61584385997229    9.93323665866341   -1.74753731986408
H         6.26195706052886   10.79180431278960   -2.32207613008947
H         5.82030313079120    9.63774301754194   -1.06302174691616
C         6.94327088902066    8.78329802468673   -2.69372910742137
H         7.24317828417353    7.90660380170553   -2.11587775214096
H         6.06020504869296    8.51538853833106   -3.27438936760443
C         8.07287213178809    9.18180083622357   -3.63870824635900
H         7.74881452181074   10.02651907395170   -4.25342739324481
H         8.31244358612710    8.34987290533318   -4.30469917045423

