109
CSD_code = QAKYUZ | q = 1 | S = 0 | Stoichiometry = C52H50IrN4S2(1+) | MND = 6
Ir       11.61747207898219    3.77076818367055    2.74589086780002
S         7.72167897108394    2.63831271134139    4.75423953428302
S        13.71941112054273    0.01029555168791    4.11646985229241
N        10.93863873043067    4.97571095074582    4.32972468873745
N        12.21223111050804    2.40342734857879    1.28801782668635
N         9.58402257236270    5.51123067472421    1.14807562554840
N        14.43392381140520    5.13903604748656    2.70134976614937
C        10.47467385244116    4.90222378987321    1.58599920012858
C        13.36798384529528    4.68031046960393    2.60598972970191
C         9.22961730912325    3.38594753738898    4.26443794298092
C         9.77405736180968    4.55103622674992    4.87862401342246
C         9.18345848164707    5.23799720301951    5.94662305522304
H         8.26122655307294    4.86059027250735    6.35873143968920
C         9.78878035724921    6.36848622199754    6.44282513970973
H         9.35283771739900    6.91067916265118    7.26695458181543
C        10.97836734716135    6.80343599133544    5.86021653110358
H        11.48326118069184    7.68584355035618    6.21642281877320
C        11.51220587891263    6.07927135214742    4.81587247935241
H        12.44084865266347    6.38727881664662    4.35488951931942
C         9.86227663450487    2.78997775824172    3.19659037063568
C         9.09557101358889    1.67667159047699    2.73053816697985
C         9.33629780712433    0.80821286408649    1.65797412521111
H        10.21592784691535    0.93579872166673    1.04938944372613
C         8.44942918955996   -0.20291895576835    1.37086201154209
H         8.64666177460973   -0.86643160134435    0.54219559328115
C         7.29550500264673   -0.38564960417782    2.13369990590401
H         6.61389398118248   -1.18584034200269    1.89076818710545
C         7.01892770531739    0.45305022310928    3.19197332548550
H         6.12790309348335    0.32786782599734    3.78731503807177
C         7.91213939486787    1.47352675435016    3.48262353490213
C        12.96522033392569    1.29828471045575    3.19900445991924
C        12.04416377618638    2.51177590636344   -0.03183465519276
H        11.57076423918977    3.41658659996662   -0.38903472377822
C        12.43618301186188    1.53024012540874   -0.91747133787098
H        12.27219921726582    1.66225581593165   -1.97401469749813
C        13.03530736560480    0.37352020456669   -0.42080352154936
H        13.34403572686685   -0.41348059808083   -1.09063914771293
C        13.22629558058251    0.25587822334241    0.93633442749826
H        13.68926821756807   -0.61538733605888    1.37149797784674
C        12.80711771773721    1.28928378975798    1.78257529555663
C        12.55524221124377    2.38308563077671    3.93996034300725
C        12.88466097682921    2.19438553440703    5.31673091119459
C        12.69792233939048    3.05377462714102    6.40702652897515
H        12.23053673806130    4.01393246427445    6.25874492188954
C        13.11869022522688    2.68218311767273    7.66227243599703
H        12.97202471039938    3.35272401125295    8.49548394346917
C        13.73530254899350    1.44908992393588    7.87708704285490
H        14.05748028193082    1.17776751694494    8.87037074109939
C        13.94120257029061    0.57811836564457    6.82851310554281
H        14.42167097854224   -0.37592699335238    6.98002312768422
C        13.52063717625781    0.95269026701295    5.56115576947860
C         8.52197569169051    6.18860375939161    0.64654126427307
C         7.35227296118710    5.47147020828550    0.34974416563560
C         6.28581358335007    6.18611775075113   -0.17187107140685
H         5.37138695559359    5.67502506083881   -0.42345159133826
C         6.37795626579947    7.55305275499455   -0.36942032536010
H         5.53451325555474    8.09046127899624   -0.77469548228113
C         7.53595683459211    8.24199167589392   -0.04939032683655
H         7.57579868736947    9.30730148002929   -0.20416072478221
C         8.63730703022290    7.57490857390497    0.46106108704109
C        15.67700823330139    5.65308079524510    2.87424343766968
C        16.53955792552648    5.01939941365379    3.78310476466645
C        17.80000047781590    5.57036851164748    3.95075965640900
H        18.49751414521715    5.11120057840910    4.63136534617980
C        18.17532223026836    6.70723025435759    3.25612896327276
H        19.15957364855189    7.12313705554243    3.40692665060753
C        17.30601072765689    7.31590291687098    2.36675954746022
H        17.62440383293155    8.19868131710805    1.83779082980329
C        16.03998877390246    6.79780021902865    2.14790164574322
C         7.31166368641639    3.97922171831415    0.57067712283828
H         7.96202472535318    3.74202083868455    1.42005231330759
C         7.87269028377132    3.26891024248903   -0.66664606861975
H         7.24653979585052    3.46956218996478   -1.53275129907636
H         7.89966171187917    2.19572484084756   -0.49497196709838
H         8.88313705427308    3.60858757043777   -0.88569703782303
C         5.91634376509223    3.45320322568301    0.89751888198423
H         5.46740926856722    4.02608301504535    1.70568439469490
H         5.98932120850809    2.41454750415683    1.21228398340992
H         5.26315231910548    3.49419077930586    0.03016199262340
C         9.91246727108490    8.27500597835098    0.86870254979618
H        10.75466929666410    7.60444196761543    0.65477050797115
C        10.14985051255976    9.58420632293261    0.11985032348521
H        10.06572795719228    9.43626077922672   -0.95413168691260
H        11.14899575992127    9.95447380341289    0.33780292207868
H         9.44056073381596   10.34759246157830    0.42775890522695
C         9.87659469939848    8.52754840417800    2.38205849053261
H         9.03911727944027    9.17430340817276    2.63336688128706
H        10.79569787326103    9.01193993048541    2.70301841595813
H         9.76758279245714    7.59475108745191    2.93339724916338
C        16.10076592086060    3.75858291489703    4.48620351338065
H        15.01553457411145    3.80049071621282    4.63509751448429
C        16.41525456842011    2.56055585227671    3.58179057320965
H        15.86985187429319    2.62769873700994    2.64156170285869
H        16.13408757417806    1.63597713844075    4.07837090705663
H        17.47985171193271    2.52410215381606    3.36187136244262
C        16.74589835649968    3.57222967477272    5.85772046499330
H        17.79854454276268    3.31746220732147    5.76923120898772
H        16.24700272360454    2.76039517012687    6.38221774282096
H        16.64984730901311    4.47511426043263    6.45653301576935
C        15.04794469596179    7.43128708578410    1.20102110148739
H        14.42388188116382    6.63428427341707    0.77734621479273
C        15.71442548859955    8.17097434925309    0.04272779678984
H        16.19536603921544    9.08420116929489    0.38249765857788
H        14.96396937983119    8.44517444881993   -0.69501361941708
H        16.45664842638294    7.54103040069725   -0.44145883028217
C        14.13759811997765    8.38525635384652    1.98418383032005
H        13.58830735098222    7.85422386740012    2.75934293830531
H        13.42079205331630    8.84983908651135    1.31159959752593
H        14.72850183311369    9.16788126184592    2.45444333035451

