85
CSD_code = QAKZEK | q = 1 | S = 0 | Stoichiometry = C44H34IrN4S2(1+) | MND = 6
Ir       -4.75314931145052    2.30170666757029   -0.63974101200217
S        -9.26151176435578    2.51513970962737   -0.60368992116117
S        -1.26596881175097    3.78136068168084   -3.09828635253895
N        -6.75156617382622    2.36086433066477   -0.02685222495264
N        -2.89177678843840    2.46815781115581   -1.58463159629303
N        -3.17100431376743    3.54868114867856    1.75501933750931
N        -5.12084671684147   -0.80230229008989   -0.42030048191892
C        -7.59621004556491    2.34320032676924   -1.04139829076622
C        -7.38675692439638    2.49174609082785    1.18137702165145
C        -6.79988139822094    2.49989841452129    2.44508159802070
H        -5.73129347227543    2.38376392336671    2.52956863589198
C        -7.60535968805991    2.64455618912402    3.55380625070680
H        -7.16132310632356    2.65401420210904    4.53702872216074
C        -8.98775582932181    2.77570639465533    3.42867437145817
H        -9.59433844422672    2.89067293859972    4.31271407409516
C        -9.59218498271071    2.75151224764494    2.18763355732105
H       -10.66111525399605    2.84100152175591    2.08129133039680
C        -8.78492099259175    2.60467368887307    1.07141143719726
C        -5.69376694484852    1.99467758637456   -2.43780570931421
C        -7.09593010340368    2.14527898214890   -2.36792770165578
C        -7.91517555689068    2.06551024066657   -3.49542165933309
H        -8.98302509335397    2.19399367099102   -3.39202556581331
C        -7.34335071148923    1.82171497609318   -4.72484699195325
H        -7.95824154454484    1.76061498697997   -5.60907260480866
C        -5.96873922925413    1.64853027085929   -4.81806106269214
H        -5.52047313739173    1.44497313864409   -5.77943385021131
C        -5.16105507327807    1.73490385942634   -3.69390429599834
H        -4.09658587182356    1.58493759712258   -3.81640001803671
C        -2.73821475059012    3.62534506761464   -2.20159631740163
C        -1.82102437496638    1.63074509700348   -1.76808304900656
C        -1.63794946877457    0.36195593324937   -1.22102477469492
H        -2.39800427843012   -0.04945786819740   -0.57654402715514
C        -0.48143238177830   -0.32897724300374   -1.51138225822790
H        -0.32619525088423   -1.31035582762999   -1.09045318386109
C         0.49909963831673    0.21840052229050   -2.33750863250805
H         1.39258193810509   -0.34628607848201   -2.55061706139257
C         0.34358005510240    1.47778247299190   -2.88106334070054
H         1.09890506753550    1.91368208923230   -3.51455868324787
C        -0.81526449087956    2.17723772951725   -2.58668157874743
C        -4.82075932205551    4.26684663074234   -1.22915712904743
C        -5.78815660408017    5.23719063946096   -1.00235772801489
H        -6.63693454659901    5.02511594168722   -0.36567421700018
C        -5.69388508300146    6.49905657052012   -1.56961495616849
H        -6.46473533200760    7.22930362838664   -1.37162613420609
C        -4.62438001641073    6.83590791387660   -2.38867136166613
H        -4.56790291108307    7.81879690484048   -2.82964313441112
C        -3.63464978030121    5.90842779720648   -2.62827180075678
H        -2.78676446425404    6.14611277237192   -3.25487617558823
C        -3.73466275031406    4.64161814584585   -2.04983991383392
C        -3.84308610158933    2.95186221716431    1.01238473123758
C        -2.32964416644945    4.23924838571643    2.56452725073325
C        -1.06517748219083    4.58693293051751    2.06669908163353
C        -0.21146730727221    5.28907143601104    2.90077150560476
H         0.76676504817492    5.56749086354292    2.54018637976172
C        -0.60016018217714    5.63629825100758    4.18387691853320
H         0.07834966555533    6.18329301251741    4.81944788262485
C        -1.85442179977636    5.28807067542126    4.65490465789589
H        -2.15000389071000    5.56566869231700    5.65490575934647
C        -2.74287455614470    4.58401465446793    3.85792172941507
C        -0.67686957360477    4.21238892735107    0.67097398205312
H         0.34585300278740    4.51407603695842    0.46437796812349
H        -1.33706615662306    4.70481813435110   -0.04438653298016
H        -0.76139272401840    3.13508794923988    0.52187427051631
C        -4.10116325938172    4.19355736953873    4.34855095320873
H        -4.87408680848528    4.54317468944321    3.66440524204763
H        -4.28650464080336    4.61776857401059    5.33101143502999
H        -4.18017535393389    3.10842540017741    4.42145394274970
C        -4.82728287912641    0.32558664263914   -0.39411501642583
C        -5.50489055521935   -2.10123634573142   -0.48782803866138
C        -6.72568798530953   -2.40149074477081   -1.11027825991451
C        -7.10747443017465   -3.73106674035542   -1.17613845909707
H        -8.04165206012852   -3.98812005313463   -1.65115181741211
C        -6.30662472338590   -4.72669267944580   -0.64157988274883
H        -6.62071426304691   -5.75686637761281   -0.70244020615029
C        -5.10716112937440   -4.40879946748154   -0.02815266544776
H        -4.49061971015383   -5.19087787464887    0.38745333421692
C        -4.68211067023561   -3.09274508792602    0.06216972384194
C        -7.57198308386224   -1.30496354562520   -1.67478989244977
H        -8.47108882791339   -1.71066053225587   -2.12882878622232
H        -7.02207090032690   -0.74230149805815   -2.42964729693449
H        -7.86309437632031   -0.60631458075863   -0.88953443725715
C        -3.37914230500294   -2.73388633149802    0.70474884814649
H        -3.01247529649797   -3.56005126339393    1.30721613655882
H        -3.48194825760594   -1.85422086899373    1.33886186424289
H        -2.63399586791340   -2.51467899724034   -0.06091384523923

