41
CSD_code = QALDAJ | q = 1 | S = 0 | Stoichiometry = C17H17AuClN4S(1+) | MND = 4
Au        3.32324187238494   -1.75334176787368    7.91960366591861
S         1.37734554380491   -1.20605215882493    8.99354758525505
Cl        3.01793089872524   -3.97336156038987    7.79774844524866
N         0.89903818427878    1.29630552085111    9.70702026788905
N         2.85736171259826    1.03982243813607    8.57308179018833
N         3.69754769800491    0.22710583744064    7.99131829129809
N         5.16503284069365   -1.70779627199691    6.97318822841036
C        -0.33238770486652    0.82307580229973   10.30646904393998
H        -0.14405251922478   -0.06219839325787   10.91798359295997
H        -1.03576108176984    0.54293899418281    9.51513564312375
C        -0.83287559817904    2.02113217576273   11.10840752293275
H        -1.91522300063058    2.02693004925019   11.20145412588120
H        -0.39773057070310    2.01426904471478   12.10751708724689
C        -0.30294278808666    3.21077688098962   10.30919120271003
H        -0.93593779092459    3.39427420963088    9.44122958660637
H        -0.24918117494377    4.12117126578711   10.89982024854878
C         1.07501925805401    2.72960802502764    9.86614388113442
H         1.42180217160568    3.17232934117611    8.93223713077988
H         1.83151450452331    2.91575023183546   10.63495649975131
C         1.76466602862769    0.52510799955643    9.09264509420629
C         4.84017897163189    0.60356839555357    7.46870424245124
C         5.28357609612516    2.00150332855839    7.51198884051614
C         4.42495430343644    3.02560709524031    7.11448535350794
H         3.44020977026837    2.78310541892268    6.74666948082283
C         4.84882730042555    4.34009884483375    7.15824088531040
H         4.18628514780274    5.12665938328847    6.83195411529571
C         6.11902533269310    4.64870517184065    7.61945769487616
H         6.44444501716017    5.67636637729019    7.65922779722556
C         6.96914168082819    3.63629461944130    8.03589567260077
H         7.95337525049666    3.87405812958282    8.40855022782669
C         6.56098885151002    2.31683902070688    7.97962780758889
H         7.21477333713450    1.53282320102235    8.33212871419133
C         5.63425724764815   -0.44319671389429    6.85980129542455
C         6.80911122613510   -0.20655169482824    6.14328714643576
H         7.15785820160421    0.80578014290594    6.01680511204423
C         7.49910606878247   -1.27341972874844    5.59379883857923
H         8.40899210065614   -1.10113638533407    5.03978181842305
C         7.00681187367673   -2.56207056121859    5.75666129623827
H         7.51909676329894   -3.41735822372767    5.34821168468427
C         5.81990053715599   -2.73237721924981    6.44848068957469
H         5.36657643755748   -3.70344626648426    6.59324235235264

