130
CSD_code = QALGIU | q = 1 | S = 0 | Stoichiometry = C72H44F10P3Pt(1+) | MND = 4
Pt        0.05117113044154    3.12798566225111   19.75004236253766
P        -1.77575268336633    1.75885298568443   19.36520175947764
P        -1.14421770276074    4.92492113820546   20.51048764666432
P         1.88902658231143    4.43606111428249   20.03794590606348
C        -3.06196845215515    1.70544416574953   20.54200189546178
C        -3.86204453256239    1.71763131993329   21.45249520014737
C        -4.83168088666112    1.72633075881258   22.47423903451508
C        -5.98144410835903    2.50815383460314   22.34611622028028
H        -6.13377404603992    3.08948834442801   21.44811860291749
C        -6.91377795193637    2.52853625108904   23.36482406254547
H        -7.80361707632508    3.13154118472144   23.26491663238879
C        -6.71087109390454    1.77621871155643   24.51163770034466
H        -7.44278681792630    1.79531422837374   25.30428333386890
C        -5.57168171729760    0.99622166231259   24.63946204976954
H        -5.41802606473734    0.40727329534885   25.53089507500065
C        -4.63157326564560    0.96650602524689   23.62842445267636
H        -3.74047983402529    0.36361987561141   23.71959830792223
C        -2.54753272489564    2.38075246706794   17.85077118660546
C        -1.79181315856715    3.22744701724395   17.04521296796422
H        -0.76938901800693    3.47146276313411   17.33710005218538
C        -2.33591961531043    3.73612070321594   15.88133657368026
H        -1.75231815821864    4.38983085113230   15.25132532577358
C        -3.63294614530313    3.40185763915272   15.52495499642332
H        -4.05968628331236    3.79985032351735   14.61712179081060
C        -4.38387760166938    2.55436058679133   16.32496143965282
H        -5.39087136615764    2.29289290033818   16.03733101871608
C        -3.84522828190180    2.03919129384044   17.48980273726373
H        -4.42133117964201    1.37831105356770   18.12256230921232
C        -1.44535117894279    0.00283802382676   19.04970268839537
C        -1.02308618379409   -0.39890641019171   17.78564441303423
H        -0.98844804335679    0.31779984749563   16.97564344064584
C        -0.65541055409053   -1.71461856298770   17.57243418187895
H        -0.33141335162590   -2.02894244635763   16.59190806826084
C        -0.69800861233155   -2.62610632944206   18.61621322887016
H        -0.40166960916421   -3.64990981509751   18.44824870227803
C        -1.12022234386777   -2.22611535070545   19.87420896089249
H        -1.15302216902550   -2.93746293469313   20.68509171217226
C        -1.49185710935575   -0.91249013446402   20.09619751395237
H        -1.81406968254619   -0.58829392090451   21.07599981743600
C         1.21850345905941    1.52758747445217   19.24682168742769
C         1.38329977764276    0.59908542202530   20.26723999932102
C         2.07404611608452   -0.59206050514093   20.11510875520473
C         2.64466517939587   -0.87970185514676   18.87799391214662
C         2.50781512800123    0.02419405781614   17.82973427969420
C         1.79778382626992    1.20310401877156   18.02986578391400
C        -2.38059199854820    5.60087438583368   19.37789266069379
C        -3.64498568388018    5.01804787109198   19.30532110545978
H        -3.91527457411437    4.23327559940291   19.99873042327542
C        -4.54082534744742    5.43435953418716   18.33919792746196
H        -5.52512191063580    4.99356228921188   18.29581842311785
C        -4.17418413283475    6.40621175327503   17.42165472221582
H        -4.87777910950404    6.72979723455865   16.67072146462565
C        -2.90261849208611    6.95345153061261   17.46106680500471
H        -2.61144090143340    7.70021407012965   16.73900897835609
C        -2.00288286119353    6.54840106377393   18.42925548760735
H        -1.01096472127114    6.97866623085236   18.46134630440830
C        -1.92461840999936    4.48521677269891   22.08407136669168
C        -1.16127759712503    3.62283406069066   22.87009892536538
H        -0.19224804975263    3.28593873943771   22.50773350098925
C        -1.63746645937035    3.19605552415343   24.09423046936723
H        -1.03972831680731    2.53597892581544   24.70341346158145
C        -2.88494510702853    3.61278316905686   24.53152249017423
H        -3.26202607070664    3.28446584324460   25.48736298732937
C        -3.65872375160555    4.44485132228663   23.73874167032031
H        -4.63680726352854    4.75268118940774   24.07675128521753
C        -3.18411277822806    4.88510232124490   22.51571903920466
H        -3.78925247526900    5.53764741247135   21.90133513669664
C         2.80182543466307    3.83487396570378   21.47728850564916
C         3.58964162703521    2.69088783203471   21.35896325365223
H         3.72209642543969    2.22470738353065   20.39218797050773
C         4.18747245927314    2.14507940125016   22.47964936916028
H         4.80206529073704    1.26300277085016   22.38329831104928
C         3.98702711899237    2.71990264039834   23.72478756654792
H         4.45110539381752    2.28825903003489   24.59790413527279
C         3.17920851131405    3.83867065305719   23.85092914144196
H         3.00807240832075    4.27773008771606   24.82210963025931
C         2.58142973686691    4.39461162375023   22.73466116852652
H         1.94347349620766    5.26240085317804   22.83985850445512
C         2.92644593986374    4.54910652415548   18.56378809300838
C         4.26477807074606    4.18952860267795   18.47968222875991
H         4.80812828363687    3.88459998122967   19.36093800319132
C         4.90843135143734    4.25283564471844   17.25612618966173
H         5.94784983581291    3.97052241794973   17.18740453531734
C         4.22736277824546    4.66961028362446   16.12486071991921
H         4.73670496521601    4.70810766785128   15.17446597851539
C         2.89068299219798    5.02906046352278   16.20789786645545
H         2.35939022439673    5.34687886322598   15.32396257974699
C         2.23914874780406    4.96117306610579   17.42194632156152
H         1.18812206323335    5.22034857776051   17.50372632984016
C         0.00461322247301    6.32397186161570   20.83313906886305
C         1.36269098102672    6.13138793597876   20.45820917189265
C         2.26035293103455    7.17867431134789   20.48000942626476
C         1.83717748372590    8.46419287574681   20.90819462669224
C         2.72471545641403    9.56148586796336   20.93453866948115
H         3.73666531914188    9.41931785536463   20.58863879783924
C         2.31584226298452   10.78195649053065   21.39436503991773
H         3.00213506008912   11.61410987325292   21.40951815383716
C         1.00418056550414   10.95872401383035   21.85721061253343
H         0.69424457907985   11.92520634433628   22.22301026734452
C         0.12105518428458    9.91506836185331   21.85031526898892
H        -0.88464086401481   10.06287054127612   22.21315313664753
C         0.50607470351466    8.64475410600317   21.36919119858129
C        -0.39852070834126    7.55004425254922   21.31924687707255
C        -1.75135394374260    7.75963502664891   21.89069894544868
C        -1.97812963969491    7.40758749463046   23.21887194480151
C        -3.19360789619747    7.65773825635376   23.84500962081585
C        -4.22152916327576    8.26435121186773   23.12676225318367
C        -4.01200628418906    8.63817341265449   21.80111299258170
C        -2.77637502018041    8.40338807796455   21.20506093278146
C         3.66284129096938    7.00415908440825   20.04497840945271
C         4.04420468356369    7.44700835577230   18.78038108378940
H         3.30446313240945    7.88237720852586   18.12442333388544
C         5.35690518674673    7.32487277883076   18.36767688527179
H         5.64308284098834    7.66745982824236   17.38525114307571
C         6.30401084900557    6.77478479331021   19.21667843863347
H         7.33033671956053    6.68646064926889   18.89576393281334
C         5.93434954950458    6.35410932806585   20.48227145967549
H         6.67183514633857    5.94133703790587   21.15393753161423
C         4.61946027057887    6.47041827798723   20.90014727939181
H         4.34029392125771    6.16992374873428   21.89886812850792
F         0.79784480780211    0.89060747504024   21.45563363297133
F         2.18448367949246   -1.45985158617330   21.12628942153754
F         3.30786598976542   -2.02362297750377   18.69601594368316
F         3.04292432761571   -0.25172510167369   16.63622633366525
F         1.63994240168936    2.04973869469277   16.99163163233329
F        -0.99613805516502    6.81517018673580   23.90529549807081
F        -3.38388120130989    7.30296427143211   25.11356904131054
F        -5.39819703796412    8.48351700741918   23.70380108128379
F        -4.98689331046159    9.22533272222910   21.11067606040818
F        -2.56944915912413    8.82622613106927   19.95626789891128

