60
CSD_code = QALHUJ | q = 1 | S = 0 | Stoichiometry = C25H27BrCdNO2S3(1+) | MND = 7
Cd       11.27670664602954   10.18774323948177   11.69091762637165
Br       10.07216302729895   12.28329595494658   12.04796253503084
S        11.81398890703640    9.48503604423935   14.41361478774436
S        12.64429328651550    7.64156938980069   11.53679625885746
S         9.26718248275459    8.04680041305718   11.96418362495015
O        13.85455261293604   10.78637054848075   12.19373629640904
O        10.02189498033670    9.87553945224277    9.39516216584673
N        12.53675380073082   11.00165442837219    9.73614003200773
C        13.25140657064005   11.83661465220372   14.22647859799059
C        12.89129238940449   12.96632612195324   14.94752008404170
H        12.61822324801474   12.86083938827396   15.98638560063128
C        12.88502553647103   14.21473472608609   14.35155078267839
H        12.59736517003171   15.08255482478008   14.92199617755905
C        13.24425309626784   14.34244030553430   13.02294047919082
H        13.24179726481070   15.31100191781734   12.54942974210834
C        13.59289593694416   13.22641558519260   12.27891373785885
H        13.84562589890963   13.34460558617018   11.23632286481403
C        13.58150877709864   11.97346485685769   12.87117034807780
C        14.61204077245480   10.87392456733148   11.00605415494930
H        14.97540332206153    9.85357022433791   10.82460875337276
H        15.47555046638992   11.53431315037817   11.15364834480155
C        13.82810178665936   11.32142754575666    9.79215251451430
C        14.46339957993072   12.02356134957578    8.77520283824328
H        15.51254506204462   12.26043817021222    8.85380013327355
C        13.72390320498369   12.41939439123811    7.67319307545064
H        14.18680739003042   12.97145566915137    6.87046500052476
C        12.37855177666012   12.09856962370153    7.62532644357701
H        11.76554855657756   12.39623074873993    6.78979126248447
C        11.82056290997311   11.38340078976228    8.67906363206827
C        10.34941136806345   11.04748984452086    8.67187111361922
H         9.81289561436972   11.85764809995304    9.18562903123534
H         9.97908905647802   10.97655694139911    7.64275818659559
C        10.14458401200920    8.67088549999260    8.73607924761343
C        11.00550813937082    8.45494619760853    7.66920862219557
H        11.63880779246025    9.25036080076645    7.30716863882172
C        11.06423203915630    7.20846651399830    7.06749463290161
H        11.73552156338689    7.05126719683915    6.23808084076650
C        10.26564336720838    6.17409417658415    7.52064199168205
H        10.30394136123524    5.20732895237663    7.04490470991527
C         9.41024234242947    6.38595367467336    8.58854243298471
H         8.77673372905482    5.58372174457821    8.93789176343599
C         9.33507918792746    7.62681065890496    9.20726634149642
C         8.41015852707589    7.86076036923011   10.35297735021113
H         7.69748440958805    7.04465950662759   10.46844410474278
H         7.87512547230800    8.80585039886167   10.24520377941937
C        10.11137036877563    6.43633041933397   12.13729364677928
H        10.22447984663146    6.30491736079520   13.21302291555528
H         9.42015834047589    5.67556237130352   11.77326006078792
C        11.44475313541334    6.27411165046546   11.41562615118451
H        11.28558440324436    6.18119667506143   10.34037273453248
H        11.94830398727511    5.37531425903157   11.77465465562281
C        13.39080021124685    7.45552145380622   13.19306330870304
H        13.73160342085699    6.42218138862447   13.27582221481778
H        14.26448384870173    8.10774986365278   13.14619246041414
C        12.52581218017455    7.80348723530502   14.39460421125258
H        13.12073159118132    7.69889006203280   15.30360755447627
H        11.66578398491628    7.14029238426204   14.47280679323459
C        13.29232949582084   10.49067021702392   14.87104477052889
H        13.28174377892039   10.57712986279285   15.95712197639800
H        14.16575896424574    9.92885055391756   14.54281586264733

