87
CSD_code = QALJAO | q = 0 | S = 0 | Stoichiometry = C34H49ClNPZr | MND = 13
Zr        2.26554031257025    9.57582390357225    3.39891234074980
Cl        3.91473907327985   10.83400715145795    2.21537984580105
P         3.26637343155350    7.23128346832574    6.45595282704988
N         3.62954773186418    9.54968028396016    5.00820547746568
C         2.79701495642945    8.65182132025370    5.40855168995385
C         5.04620639039146    9.62808707244647    5.33122511647932
C         5.51094168302868   11.08450710125383    5.30272047378236
C         7.01169340880072   11.17024331013233    5.56337638372737
C         7.77795529412167   10.35260378744971    4.52839063947196
C         7.32855456517123    8.89550766675603    4.57082296351121
C         5.83014837067364    8.79995515631242    4.30515801858157
C         4.01987132223006    7.89879492244468    8.00538891271729
C         3.40342537949799    8.89506321109461    8.77298459025942
C         3.99919776964718    9.29128059663048    9.96134674157022
C         5.18649912209333    8.73768951000131   10.40947790621169
C         5.79258464439975    7.76647237413469    9.62719192924708
C         5.23759456501693    7.34480274970357    8.43022440463167
C         2.12332528001932    9.57437543287722    8.35204589396915
C         2.34799968425723   11.07355509483356    8.14554167438259
C         1.00587304548104    9.31517815490323    9.36422850273363
C         5.81637566885756    9.18181943222996   11.70651352299449
C         4.87765699624028    8.92407677272642   12.88674838099523
C         6.21008407721514   10.65917869480332   11.63831454175977
C         5.91177619859673    6.26581699352784    7.61457055089455
C         7.43536995150330    6.27062946854501    7.72696024663413
C         5.34843439412341    4.90410332608161    8.02626004844184
C         1.19092279559085   11.86447579398660    3.13570992048770
C         1.40405725608024   11.65839171269071    4.51887307099977
C         0.56829320862387   10.59495390437758    4.93971987298085
C        -0.13555847843086   10.12200410860611    3.81488415815115
C         0.25738549302848   10.89945749014619    2.69646722047199
C         1.70171299252420   13.02258007457646    2.32669173390883
C         2.05777206134748    8.41254885858624    1.19710014547683
C         3.21913331132581    7.87163086388230    1.80321082685883
C         2.82282241311315    7.12801429290625    2.93369297197955
C         1.41731264675391    7.21453037854817    3.04306888788011
C         0.94591946909587    7.99085207839713    1.96005779917583
C         2.01488756042611    9.18134253796591   -0.09553486578838
H         1.97511346529740    7.05945590354770    6.98315649137671
H         5.21294014708286    9.20568952932482    6.33725140034218
H         4.96722204210340   11.65607211412129    6.06020763200410
H         5.27638373379986   11.50507349168993    4.32125952553231
H         7.33155132670709   12.21324874877906    5.52732667036572
H         7.22840851588959   10.78675932825893    6.56458544073953
H         7.58460418017686   10.76046557761908    3.53437683154015
H         8.85088436441821   10.41799684003306    4.72044085613512
H         7.55222896803430    8.47378509356858    5.55350052331566
H         7.87085658839855    8.31295731480792    3.82357212847007
H         5.60799850825926    9.18568677906871    3.30428632499402
H         5.50045833859715    7.75607112480500    4.35960932524326
H         3.51855786474774   10.05575863803964   10.55275231904413
H         6.71873920046734    7.32963461591448    9.96834586975732
H         1.81060612150888    9.16202773335967    7.38418971557216
H         2.72512079822294   11.54589457211256    9.04914171794246
H         3.06893510365686   11.23080652555979    7.34490643754332
H         1.41502254234207   11.56097391830985    7.87025381712967
H         1.24004868534678    9.76116915772326   10.32801219569562
H         0.86543084095408    8.24547256223917    9.50842238360588
H         0.06982027096089    9.74281397353911    9.00974004383013
H         6.72796701260274    8.59359841055173   11.86181241182503
H         3.97344669919874    9.52160560173878   12.80058867466250
H         4.59280483302264    7.87464663443078   12.92175505374214
H         5.36981205142865    9.18149551693268   13.82226820381122
H         6.71691891775596   10.95699121709385   12.55370648882285
H         5.33187918231612   11.28790780049442   11.51307389302614
H         6.87936912345743   10.83499616283914   10.79872004499090
H         5.65555990960115    6.43436518646298    6.56061184667268
H         7.86152507075531    5.63909542859810    6.95019924505367
H         7.76113164593508    5.87989151948810    8.68831229841123
H         7.83184582631364    7.27723472931690    7.60847978367683
H         5.53064352609504    4.72338483008037    9.08376182131538
H         5.81642470540636    4.10978901739511    7.44921872282294
H         4.27390864155101    4.87513736499530    7.85136222202252
H         1.99932045942033   12.29684751074266    5.16149926958171
H         0.39268512012767   10.28796165134970    5.96126778172557
H        -0.93750585364795    9.39377189826817    3.83766250214751
H        -0.19961281165775   10.87956687373768    1.71310903636789
H         0.99068840610726   13.85104899187125    2.37955738259373
H         1.82521339317620   12.74822672828844    1.27922508076879
H         2.66023682396288   13.37207154916558    2.70744661669710
H         4.22125517823690    7.92798185145865    1.39436240181933
H         3.46195337926832    6.49423750164504    3.53660538077411
H         0.80657119536454    6.66885690474025    3.75185686890919
H        -0.09210231515815    8.10880335528450    1.67283441027282
H         1.00705964831273    9.54499618847701   -0.29688660381650
H         2.31412567748168    8.54062425777421   -0.92754090517881
H         2.70169890000885   10.03081272336389   -0.06944295034913

