81
CSD_code = QALJIY | q = 0 | S = 0 | Stoichiometry = C43H35O2Y | MND = 12
Y        20.85508413821379   13.09114684655808   20.29436126493319
O        21.39442923644337   13.28895507846475   18.34832656812909
O        19.07559752217049   12.25754749999826   19.04102332765335
C        20.36473889558981   15.63648339582688   20.11423870911090
H        20.59899506442710   16.24599614630739   19.25279965521226
C        19.12445554796516   15.01158912767576   20.37428269378003
H        18.24375459731353   15.07106109344148   19.74869939461853
C        19.17694036887881   14.46174987525785   21.67378415530339
H        18.34219193969475   14.02795279968081   22.20787941590516
C        20.45182972711403   14.74340387896383   22.21840954414832
H        20.75361686054083   14.58061973257618   23.24483527452038
C        21.18803976492106   15.46743234750473   21.25033569372076
H        22.13316082228348   15.96432469510856   21.42176327575230
C        20.28620296462022   11.37396907931291   22.18850621030221
H        20.08210468802686   11.81943894781716   23.15320841385956
C        19.41004712524341   10.57226975210069   21.46244240525368
H        18.36646776588341   10.41648679505811   21.68244853323370
C        20.12088455830607    9.97141540227576   20.41078925520474
H        19.70604215329924    9.28021318686133   19.69419522567681
C        21.44440390550476   10.38880148307943   20.46994978605012
H        22.26011700263259    9.99974290340930   19.87984825267592
C        21.58683295393355   11.29762437641159   21.57033134181761
H        22.52384262264157   11.46832003752365   22.09928673996831
C        23.91834419699072   12.27576390648489   19.23121389570198
C        23.78844013661795   13.57945074088013   19.74362950256289
H        23.31248933044904   14.34840088730975   19.14219073706329
C        24.43422946798404   13.94203050775461   20.91993863850642
H        24.36469202071615   14.96082817012033   21.27623701766139
C        25.20413267171875   13.02631797015092   21.61658119863386
H        25.69569737394175   13.31300276506535   22.53420782271345
C        25.36182793851837   11.74613746273346   21.10686976190543
H        25.98019395845445   11.03044340906120   21.62899534746965
C        24.73499438227940   11.37828520737576   19.93438308023865
H        24.87167844908754   10.37756665202951   19.55078600903372
C        23.21537264499791   11.81791800071478   18.02893989412910
C        23.86431168715046   10.71931514986261   17.28251837598527
C        23.26704865264144    9.46946168530137   17.12581674322193
H        22.29779851279115    9.28218306308254   17.56704717768450
C        23.91500896552540    8.45983430118722   16.43720737202277
H        23.43992778766322    7.49542948896658   16.32807129371765
C        25.17152650929748    8.67806403903026   15.89803216592440
H        25.67578116625020    7.88859059294960   15.36071660159625
C        25.78178895512814    9.91077855419329   16.06084793264105
H        26.76556175140083   10.08495362102038   15.64969815395610
C        25.13620226515348   10.92011037633738   16.74998956796987
H        25.61376260560647   11.88050264140956   16.88103396916110
C        21.99159385578217   12.32588927646613   17.68897909437796
C        21.22591354203130   11.79512870508322   16.48157254691391
H        21.80365368008506   10.98691808025085   16.02343688019993
C        20.94454538195179   12.83143262525792   15.42594520119823
H        21.73470832377806   13.46201571014621   15.05805553166696
C        19.69081519774509   12.82099159572367   15.00106441154801
H        19.27620664622055   13.45023261527895   14.23297871197274
C        18.84996413575843   11.82437204133050   15.73326868517576
H        18.37655726780460   11.09656538665052   15.07720609291289
C        19.80385595790425   11.29642679285393   16.83132109119206
H        19.78847390336347   10.22684855098522   17.04243270389043
C        18.98971865084046   12.06623500651052   17.84231226193221
C        17.92285562584485   12.44918502163577   16.83203183556703
C        16.64588599320869   11.68749431684522   17.12050087474240
C        15.90647748559016   11.09621855811703   16.10358369209279
H        16.23733964182534   11.16297977481993   15.07741768591629
C        14.72403758905890   10.43614127512967   16.39096132441620
H        14.15763201442986    9.98375974138576   15.59012481970325
C        14.26676779194250   10.35955268486019   17.69475292069249
H        13.34604369222052    9.84124527167441   17.91664661309917
C        14.99333165974934   10.95718934762383   18.71054488448553
H        14.64001928017213   10.90867839002358   19.72956218122647
C        16.17300176457281   11.62116493675314   18.42612912551607
H        16.73358006199592   12.08704255430407   19.22281019705203
C        17.65470741655157   13.93009504507968   16.67921163755337
C        18.65246650467705   14.84678652843365   16.99414292697335
H        19.60269241683205   14.50383594164123   17.37925636714166
C        18.43404245924496   16.20160151610834   16.81686010779278
H        19.21337404695414   16.90554121176742   17.06733647370213
C        17.22414282534861   16.65718469093446   16.32247161777434
H        17.05578060398573   17.71514912984363   16.18703607961118
C        16.23053787351445   15.74818434047258   16.00394943658767
H        15.28315898995723   16.09351445705562   15.61692562434896
C        16.44358276658102   14.39213154281165   16.17994217866729
H        15.65984329648128   13.69305366190984   15.92893078603398

