163
CSD_code = QALMUM | q = 0 | S = 0 | Stoichiometry = C116H39N7Zn | MND = 5
Zn        4.38793140374335    3.02168469592928    3.78513867915359
N         3.72981350588251    1.32485380064241    2.90819343542567
N         4.11958953454570    2.15624564213690    5.62503104261943
N         4.15678166469024    4.02642887719185    2.01972866061035
N         4.65253448245419    4.83210793813472    4.72937870054871
N         6.59159755603040    2.75710110646349    3.63881681489833
H         6.84948575991284    1.88843167258200    3.15371227757115
N         7.22139295480054    0.34383128445589    4.58888030748340
N         7.27677239597781    2.32436662559907    1.08358011519527
C         7.17457680461310    2.70930399831056    4.96279934188199
H         6.61727117412839    3.36559897561425    5.63489861860550
C         7.18121668237125    1.30640940159940    5.49963576960326
C         7.19761674257730    1.04749386790956    6.86513987585754
H         7.18009556493767    1.85841779095544    7.57709126800018
C         7.22410888304099   -0.27169923444540    7.28327102317162
H         7.22274305503256   -0.51030694357540    8.33660754009223
C         7.25143329979241   -1.27798176472679    6.33071608613143
H         7.26705654847581   -2.31768501292421    6.61697889302379
C         7.26011663484513   -0.91071676736439    4.99473065074365
H         7.30985437137092   -1.64966251030338    4.20546880368502
C         7.20445706834669    3.85693216372376    2.92569186891887
H         6.65491390250331    4.77838058938097    3.12808464065191
C         7.25052327772391    3.59869311127772    1.44724051274422
C         7.32464963983164    4.64281023845236    0.53144912085288
H         7.29167533525853    5.66874196192970    0.86423720607806
C         7.44122183558624    4.33170730478538   -0.81175311946386
H         7.50208832178087    5.11643786624344   -1.55140096432863
C         7.47759455939131    2.99846711066323   -1.19038975007839
H         7.57663443962801    2.71626626989687   -2.22731896788062
C         7.38212240308223    2.03373087908124   -0.19912136218689
H         7.39308453566580    0.97767119642279   -0.43604153059559
C         8.63541729587480    3.27940563833415    4.85985848583479
C         8.65622912035974    4.04495083038177    3.49907636767412
C         8.98995359849820    5.51543245894567    3.60716030144156
C         9.01843527190813    6.21763959455002    4.78416364117172
C         8.99904509530829    5.50202097837120    6.05618496744616
C         8.95206891789066    4.13191393068785    6.06726701888124
C         9.76931970764472    3.40732133009229    6.98464605735177
C        10.23164277889572    2.21696633931256    6.32216712783129
C         9.69434421847340    2.20678921369189    4.99894548237869
C        10.46672374730991    1.74324550191724    3.96652371793519
C        10.48650848433144    2.45897369736290    2.69408983493387
C         9.73253303977168    3.59206949864437    2.53565540161305
C        10.30112672356730    4.72042106942683    1.86972448106245
C         9.83885071317298    5.91124010461570    2.53125281505882
C        10.67509807320435    7.01733031024392    2.64702048679567
C        10.70566412421341    7.75100900713940    3.87818250777872
C         9.89321610891892    7.34714888006621    4.93294796082665
C        10.41435566934300    7.34218288201494    6.27562884752335
C         9.86177835468207    6.20461826875096    6.96472308866641
C        10.64334279595005    5.50264621098319    7.87692580007945
C        10.59331202465333    4.07006776491245    7.88905548796385
C        11.92172934370332    3.57350917270086    8.15044600013443
C        12.36972306281316    2.42712197507219    7.51116945490478
C        11.50780248854797    1.73114647799579    6.58718462009704
C        12.31173623385035    1.24132335505320    5.50656520084034
C        11.79682765520320    1.26004273032290    4.21464163162264
C        12.63802745094699    1.66251201480293    3.11729902325564
C        11.82841641612548    2.40206279146532    2.18381930497239
C        12.37404480997555    3.48895793179477    1.50895383189472
C        11.58948630033157    4.67732444920202    1.34712951412641
C        12.46374423695649    5.81685292710138    1.48200636008370
C        12.01583747081150    6.96476133649369    2.11858223740904
C        12.87793335272302    7.66537431135564    3.03635087293523
C        12.06646577740400    8.15211906882955    4.12521070011117
C        12.56680959340208    8.14247166673135    5.42036463206834
C        11.72302863758410    7.73452770317921    6.51670089104436
C        12.53504612345019    6.99876335736930    7.45459473746774
C        12.00409958056149    5.90407914646836    8.12364027934151
C        12.79592246090150    4.71014023345484    8.29266765506513
C        14.08816609757124    4.65712577238879    7.78776183495406
C        14.55494780387345    3.46456611425069    7.12450597451926
C        13.71199293382745    2.36953879212726    6.99008073889302
C        13.67537489857985    1.63517761474706    5.74900259895815
C        14.48263006454122    2.02582676577140    4.68900843277100
C        13.95517809882708    2.03412355062780    3.34673064193530
C        14.51433650658983    3.16939791822575    2.65501521426442
C        13.73771337968457    3.88258072381963    1.75164363154946
C        13.79394942345895    5.32390801997661    1.73521246810133
C        14.62519769862300    5.99664732321107    2.62076311982124
C        14.15843158898768    7.18926432853382    3.28392214144201
C        14.67679815727252    7.18256610027715    4.62835651721228
C        13.89526296316292    7.65138089839131    5.67612579239399
C        13.87563981316400    6.94429493524768    6.93379489499086
C        14.63828200613987    5.79518376622359    7.09604846904511
C        15.44608152571818    5.30726516504248    6.00660756153646
C        15.39361887492708    3.86701276031984    6.02390677777450
C        15.35788935050859    3.15986731700487    4.82929552545095
C        15.37750156994069    3.86697630397646    3.57159486805069
C        15.43211690789004    5.25449411735013    3.55603501696443
C        15.46497079468111    5.98758600842922    4.79654724062668
C         3.53922751322702    0.12418126819296    3.51131156809621
C         3.59976042086392   -0.12294955709463    4.88318160205722
C         3.86478175102084    0.84330210394658    5.85472638960253
C         3.94931309888873    0.56830230332637    7.26351496207904
H         3.81463148913934   -0.39397072647274    7.71782100859389
C         4.25163105019580    1.73832049629831    7.87190988935554
H         4.40339647641012    1.91828661869803    8.91870251744058
C         4.35307225864975    2.72810053870400    6.83457781214922
C         4.71293783461930    4.05857279522439    7.05589132203993
C         4.83710735159130    5.02917988233042    6.06026547640888
C         5.16990018382488    6.40512576899008    6.31168714566470
H         5.34673005594943    6.83220121133307    7.27981036896061
C         5.18667057321800    7.02658331390577    5.10963639281709
H         5.37997466143744    8.06143405075692    4.90316786486501
C         4.86406674439599    6.02969285250487    4.12470882398392
C         4.76576095336006    6.28463216654583    2.75489197236308
C         4.39466149831777    5.34376479916497    1.79210711596200
C         4.24172700165866    5.63303853786708    0.39220815468415
H         4.38214978717045    6.59428411327042   -0.06293011152875
C         3.88479197858700    4.47377629439318   -0.20726528771438
H         3.66348602512011    4.30908802147878   -1.24377630299372
C         3.84962288514950    3.46951059139108    0.82082708870024
C         3.52727199163397    2.13044238555148    0.59903834955165
C         3.48616789898197    1.14494803737838    1.58542021829692
C         3.15407002831008   -0.23170202476386    1.33330249322513
H         2.93351353272482   -0.65043461354009    0.37063830404520
C         3.17942714609226   -0.86332359299985    2.52903681667153
H         2.95961188947207   -1.89282223802636    2.73478836523760
C         3.32993576630618   -1.50022741618916    5.34802538518791
C         2.24191886958640   -1.76645620206313    6.17476460607800
H         1.58607573720678   -0.95690897109076    6.46077055172802
C         1.99118749148476   -3.05377714568693    6.61361866656773
H         1.14052260086614   -3.24763700216392    7.25084138863144
C         2.82577252480217   -4.09311604888574    6.23770062746634
H         2.63135917174758   -5.09753177032662    6.58391847416856
C         3.90794764492884   -3.83858939048626    5.41193113924650
H         4.56058577585618   -4.64620443108222    5.11242087682684
C         4.15552008630848   -2.55321489642581    4.96601795620375
H         4.99787928137995   -2.35134829684768    4.32191675204835
C         5.04065185083248    4.46103862222231    8.44238808721777
C         6.34975770314084    4.80075054676684    8.77216190645077
H         7.11480197016469    4.77400136784350    8.00875555211081
C         6.67612627384876    5.16584274898223   10.06540313210402
H         7.69733078800429    5.42307837991481   10.30746247103709
C         5.69747646585483    5.20201365466902   11.04444499817962
H         5.95101857979673    5.48959050633089   12.05411998528124
C         4.39161839221870    4.86975297639802   10.72375995079437
H         3.62438087939408    4.90089492587262   11.48370188796911
C         4.06438936903063    4.49817576694548    9.43205255687709
H         3.04562365789505    4.24341121092104    9.17840721653784
C         5.12276898511239    7.64494098286698    2.29341001652970
C         6.43518611337589    8.09300724354612    2.41975774256001
H         7.17898151676146    7.44570368109476    2.86409481677727
C         6.79242560038824    9.35498366249112    1.98160389989666
H         7.81575838518425    9.68696598137594    2.08264218753646
C         5.84154451239387   10.18909472688629    1.41797104682931
H         6.11913803245005   11.17584710463481    1.07791585787819
C         4.53205785743614    9.75464882090929    1.29594411132627
H         3.78556256663787   10.40479169142332    0.86330116164143
C         4.17409276286325    8.49015409117554    1.72795722033563
H         3.15144716013868    8.15287838153128    1.64114622578826
C         3.15389521919112    1.73334265002818   -0.77710853926293
C         4.07855158858907    1.78456458076946   -1.81470948858436
H         5.08653051820005    2.10915115848197   -1.60355922894706
C         3.71651286021914    1.41466292809376   -3.09744366780658
H         4.44573923371679    1.45452640330025   -3.89403055401292
C         2.42407529627496    0.99469805548835   -3.36282912082313
H         2.14139233253828    0.70849565468372   -4.36515298467264
C         1.49538074567248    0.94431549512463   -2.33661679091303
H         0.48461917331991    0.62046389829524   -2.53817810215233
C         1.85725945341534    1.30828994947154   -1.05243992257542
H         1.13235347018571    1.27483773257882   -0.25202222460964

