51
CSD_code = QALPUO | q = 0 | S = 0 | Stoichiometry = C22H20N2O5PRe | MND = 6
Re        0.40945242671224    1.21981407378134    3.25459158877013
O         1.46914494226011    2.10073005655553    2.32356264400428
P         2.07645208586407    0.89044615727715    5.03198681669707
O        -0.46475286282110   -0.10664416617529    4.41041132846730
N         0.72311083937777   -0.61386192533686    1.87437918640757
N        -1.27378268931900    1.16235862273303    2.25316174544134
O        -0.64148512561139    2.65245997287761    4.30336294296159
C        -0.64252764957402   -1.04854475607619    1.53786862726531
C        -1.66048863319537    0.11881600818640    1.51760209354566
O        -2.70856871147805    0.00596531977853    0.90805591477243
C        -2.17221673064569    2.26512981234382    2.47563881158251
C        -1.79908059017063    2.96358584390946    3.79632458292178
O        -2.54004986498698    3.75782520310574    4.32519474019322
C        -0.11648130428292   -0.54626477005319    5.58877087129956
C        -0.94558920452900   -1.38196267713784    6.35155017698438
C        -0.56293611437307   -1.76691619710708    7.61938738574571
C         0.63953316721524   -1.34015463111341    8.16972953205826
C         1.48130992232787   -0.52584060207565    7.43416902920626
C         1.12450291766812   -0.15296053581808    6.14692798314578
C         3.54374199891348   -0.05698452782436    4.52425740383093
C         3.98736486905305   -1.20171638144145    5.17521355316596
C         5.12036445294485   -1.85474814201065    4.71859163054363
C         5.80767933010625   -1.37197719940660    3.61719733295427
C         5.35805977136009   -0.23730404429635    2.95753737974803
C         4.22566935863106    0.41683651875385    3.40468621633008
C         2.71113773711854    2.24139242778094    6.05736699238992
C         3.99040281802869    2.22239806080176    6.60277532363434
C         4.39787822198724    3.26233149802942    7.41978136304604
C         3.53763459742946    4.31420862491392    7.69053285952164
C         2.26532407098412    4.33484341805410    7.13977475095918
C         1.84761875698047    3.30224957220669    6.32063373099475
H         1.17012192973428   -0.21556731343482    1.04858910910280
H         1.28666130796774   -1.39880180807104    2.19401131658412
H        -0.68292084658587   -1.56486830286112    0.57377474891331
H        -0.99370411812562   -1.73502556758079    2.31342464208968
H        -3.21442092616864    1.93087854821019    2.49987649627351
H        -2.07092114383802    3.01112678539856    1.67567388682582
H        -1.89365782871262   -1.69076973469383    5.93741782568512
H        -1.21778520816376   -2.40140192488875    8.19822381660299
H         0.91189700404766   -1.63742440433908    9.17061804214561
H         2.41125224429309   -0.16773274231172    7.85509896299210
H         3.44778635147759   -1.58030371137498    6.03151075189798
H         5.46811894228947   -2.74254215935394    5.22591377810612
H         6.69227156820855   -1.88372591348176    3.26868999349119
H         5.89102168831239    0.13224673009794    2.09439965275346
H         3.84153694377891    1.29302296602467    2.89760279835444
H         4.66201260663979    1.40368149893797    6.38490283959775
H         5.39081908384767    3.25194492680765    7.84498330626013
H         3.86291272960820    5.12278429828193    8.32820324124581
H         1.59971035390898    5.15932984038709    7.34539483642912
H         0.86556451350207    3.31083735302921    5.86776541606244

