137
CSD_code = QALSEB | q = 0 | S = 0 | Stoichiometry = C66H58N3P5RuSe4 | MND = 6
C        11.13235648278460    6.90519491601984    8.63683039876027
H        11.81590250970334    6.65871546653950    9.43654986010576
C        10.07354535505603    6.05790555831590    8.34995535472530
H         9.93150246243770    5.15517704304454    8.92647999556150
C        11.31148901386248    8.07133002155014    7.90931332767498
H        12.12928246053045    8.73718964842708    8.14450606890659
C         4.36518414866398   16.84071334241941    8.69918542395854
H         3.69288668977742   17.23455671942028    9.44758062427326
Ru        6.51925297306592   11.43167439400945    5.06719872636352
Se        6.07154433251531   13.80127323781623    4.23202048255897
Se        6.61717963427072    9.12238715301306    6.21738847700912
Se        6.80359104691680   10.53016933977465    2.72573292626527
Se        9.07836688156175   11.66284051479605    5.34979393662101
P         4.22385281189186   11.19655172060274    5.06365915163214
P         7.16297682261124   15.19570578977510    5.48003902003653
P         8.22177222003274    7.99875423587833    5.29499600717486
P         8.60053185013210    9.32737055041929    2.79449421686672
P         9.54230267062093   13.75092752868675    5.40477740919524
N         8.50011747509897   14.68735297004481    6.24855888563079
N         9.14801058739257    8.76286509840924    4.21135842761421
C         7.57517232124011   16.66390713546713    4.47881180171890
C         3.42076115335385    9.55894781444056    4.96266555979070
C         9.98281959295408   10.26409220535801    2.10044277510176
C         8.37641564140507    7.90814524677451    1.67366474780090
C         3.62023968559839   11.89083752077695    6.62429778166106
C         9.79534928019403   10.83843129765969    0.85026940478352
H         8.85466715337123   10.67493442103782    0.33648117234702
C         3.15786037240919   11.97207598863726    3.80020173088117
C         9.39137233192995    7.52548997350311    6.58686468821752
C        11.12492992401342   13.92754345796038    6.25019207389471
C         9.51994988797762    7.22222322392972    1.28686203693116
H        10.49008913884539    7.60075447474704    1.58179691087473
C        10.43803790430929    8.38619913114202    6.88527625132537
H        10.54777716417179    9.29802544885221    6.31182948380182
C         9.80437451938449   14.42248883324390    3.73227220934948
C         8.40190618582075   18.87616382401199    3.05221035903834
H         8.73014932397672   19.73973665822594    2.49217194458607
C        11.15934556675847   10.46867347857583    2.80419080181257
H        11.27399246657217   10.01405618431815    3.77838998373230
C         3.16041062904800   13.20203260987726    6.71227877333087
H         3.05195451237645   13.79232557162413    5.81191446423306
C         6.09160007621786   15.84417942353202    6.78897942679516
C         7.58101836835060    6.45193020405389    4.58022725273782
C         9.19488067697601    6.36862868586654    7.32819367350360
H         8.35833580518759    5.72212610525703    7.09796259592890
C         3.82820791624917   11.15292772897916    7.79128193799312
H         4.25475089466125   10.15587005572291    7.71460749112187
C         1.79455456194620   12.11478938638693    4.04905693585921
H         1.39008656459295   11.82015361136242    5.00829954418079
C         4.93085570605576   16.49788556994616    6.39614744429014
H         4.72036743746655   16.59516578252697    5.33831571324315
C         3.77316198459829    8.79188025375882    3.85591434652231
H         4.52694033015332    9.17207459815945    3.17559775507623
C         9.40399898001360    6.06932604619680    0.53411528222841
H        10.29081161466918    5.53502715447156    0.22479840389973
C        10.79296077400252   11.62014942064122    0.29979673393244
H        10.65623063687490   12.06958415602341   -0.67312598812989
C         8.31858589798532   17.65289940674261    5.11005809556776
H         8.57197380353990   17.53633899019043    6.15567371738040
C         7.12270507372145    7.43828705340223    1.32024069365769
H         6.24424132011444    7.99165090033950    1.62734593572313
C         9.31745219155744   14.41393279243620    1.38923391250017
H         8.83329807991961   13.95792895181313    0.53911125791122
C         7.23976923760892   16.78018263482665    3.14070039898943
H         6.66152733288784   15.99433218306227    2.66978607882183
C         7.65609382164886   17.89039674442419    2.42786207512964
H         7.40139343854850   17.98366549306117    1.38252297098959
C         4.07192318864239   17.00251565054467    7.35269311171217
H         3.17273874735678   17.52101013642592    7.05265450712916
C        11.96824883040487   11.83396081762907    1.00329153425979
H        12.74303994219261   12.45642978273453    0.57923557734803
C         2.83426017406168   12.83201311898687    1.58011137398863
H         3.23962538399248   13.10266479693563    0.61668804799016
C         9.20107535920705   13.82773463190075    2.63622480497639
H         8.64021033165012   12.90764445490847    2.75310195625096
C         1.83807507499560    7.87084111557806    5.59688018340734
H         1.07733611921069    7.51309326488307    6.27646845872549
C         3.66970621120339   12.31842461320294    2.55670757087281
H         4.72919467022828   12.17813451745153    2.34939064343325
C         2.85169478808285   13.74253524761640    7.94845617354736
H         2.48341925498637   14.75578294972298    8.01263668163110
C         8.14960398624757    5.59696455361736    0.18043377254459
H         8.06091267967127    4.69254220876274   -0.40374116912851
C         8.73064231798560   18.76025663945716    4.39427826902511
H         9.31088565425124   19.53232106437152    4.87872126556078
C         8.51778400900442    5.58599999651226    4.02869879750962
H         9.56975970547123    5.82965296276716    4.09928231666104
C         0.96556264303690   12.63206549828652    3.07304824813681
H        -0.09038826449496   12.74907114892700    3.27175786468636
C         7.01083112139218    6.28031840225266    0.57254670379077
H         6.03468523226251    5.90976705136534    0.29583178660417
C        12.15151296400559   11.25798050368294    2.24997390600067
H        13.07299098560875   11.42656109739012    2.78994149925519
C         6.38266000871685   15.67398670166140    8.13393949935804
H         7.29357924390685   15.16663553044389    8.42004321687374
C        10.53684161830896   15.59403458468648    3.58801403487868
H        10.99895143350118   16.04569223335988    4.45651509511585
C         1.48437056389233   12.99511145604227    1.83931918495263
H         0.83170821542259   13.39914653047893    1.07895189730096
C         2.43495765464880    9.09828246022160    5.82692677006494
H         2.12779951147551    9.68936860227393    6.67774710385266
N         6.55733991306503   12.29167935990275    7.13768433410186
H         5.80473708076464   12.94096644739193    7.37091411696824
H         7.44866497605073   12.78900612625207    7.24524254459548
H         6.54741066364323   11.52404566464612    7.81361132512734
C        11.27389945327284   14.74233093100143    7.36095256481423
H        10.42340348504205   15.30213228933864    7.72272219804658
C        12.19694071708558   13.19098395162575    5.76337441630180
H        12.04204902778940   12.55251006036333    4.90265929973537
C        13.42635133848877   13.27906873057515    6.38656435785211
H        14.26580466288536   12.71005186505071    6.01394973746824
C         3.17005370283465    7.57097497736522    3.62632056538266
H         3.45278025875886    6.98416954828968    2.76380431067027
C        13.58078176360274   14.09836478642880    7.49516794919402
H        14.54215430807164   14.16621502199320    7.98340717019053
C         2.20391737462205    7.10453044390789    4.50338809213744
H         1.73107077760729    6.14789613725259    4.33268107684496
C         3.02007937386478   12.99219290286635    9.10096835472534
H         2.77494254576764   13.41869215816827   10.06268181729533
C        12.50762725700324   14.82634608377007    7.98218987755899
H        12.63277690648220   15.45985397781706    8.84863561548512
C        10.04505114539384   15.58180414994247    1.24184175937922
H        10.13630775830836   16.04129930544264    0.26821494628723
C        10.65892139206598   16.16876930501861    2.33817877000044
H        11.22709343460861   17.08010095936105    2.21912201075561
C         3.51846544136928   11.69952301733967    9.02240852892642
H         3.66982519768047   11.12144489258786    9.92283356471105
C         5.51428372060612   16.17312261235583    9.08880218832412
H         5.73630951495273   16.04497321240969   10.13841827289868
C         8.09210279640245    4.43331553657333    3.39891544657407
H         8.81459025504657    3.75581491067524    2.96782894597200
C         6.22816290893773    6.17088564483992    4.50358763298351
H         5.51487583313855    6.85758059374276    4.94188563984531
C         5.80783447969456    5.01355854985606    3.87163530305629
H         4.75306420560471    4.78824409723051    3.81367608300632
C         6.73692104985281    4.14917025053363    3.31846844234205
H         6.40698020909181    3.24788409084212    2.82248468942009

