77
CSD_code = QALTOO | q = 0 | S = 0 | Stoichiometry = C24H44Cl2N6Ni | MND = 4
Ni       -0.71357404190786    7.59743930673345    4.30581412328548
Cl       -0.28376228151226    8.97891574959190    5.81580329134509
N         0.34412673519849    6.10703864022531    5.10823198712751
N         1.70441773649675    5.73085523694307    7.08468464727839
N         2.44237238360951    7.07239314709930    5.48709756122048
C         1.39224371364442    6.28405439424763    5.86816288892585
C         3.41384140437520    7.01822162559402    6.47189097306151
C         2.96571534094650    6.20097407404186    7.45582984045106
C         4.69702760047379    7.76927948062034    6.41941427919935
H         5.38767440879402    7.37195161228116    7.15808257044637
H         4.53041859024058    8.82240964498589    6.64110412325169
H         5.16506565738991    7.68998491279677    5.44210021829485
C         3.67615112054451    5.77081470201541    8.69099045035404
H         3.79598940635192    4.68857005811560    8.71191498062043
H         3.14644135851045    6.07949586601885    9.59031321758613
H         4.66336606618320    6.22249591787928    8.71720555992491
C         2.47749559399584    7.77498470401481    4.21312314329238
H         1.43707200418021    7.72080066569990    3.82757380369428
C         2.82326665800830    9.25392255648835    4.34851746418653
H         2.27485438424991    9.67987687896268    5.18474759806987
H         2.50313448415616    9.76903276369689    3.44635422512744
H         3.88818171908526    9.42033578341531    4.47921283809573
C         3.37776380809827    7.04530364681100    3.21725214114283
H         4.42358812477663    7.08740780910280    3.51314511447164
H         3.27964394141156    7.50881623745824    2.23931095681795
H         3.08231412736567    6.00106518867957    3.13805536298114
C         0.66088923773566    5.28640568839582    7.99851919238156
H        -0.19100902095478    5.03077162931421    7.36920956051409
C         0.22941237386965    6.44622754807307    8.89791830211878
H         1.02993248151439    6.75116012870267    9.56620246156197
H        -0.62774926229395    6.14826431247472    9.49625040425803
H        -0.05022430228986    7.30003764414048    8.28276816768124
C         1.04063608173832    4.03415991317961    8.78726092603976
H         1.53865520461559    3.31464139553320    8.14110062159857
H         0.13571069388746    3.57382421815524    9.17666641899836
H         1.68667088226203    4.26381072793393    9.62781521612473
C        -0.42698559576140    4.88980038334165    5.02104536456236
H        -1.28201886265339    4.86383125663701    5.71363830861774
H         0.20263656793894    4.00510197546114    5.19088245125490
Cl       -1.14293396337604    8.97883238725816    2.79548576243395
N        -1.77111094147374    6.10692144929966    3.50351131533723
N        -3.12966511591126    5.73112883575793    1.52573861108051
N        -3.86882684842204    7.07265794347901    3.12275990211249
C        -2.81850434750980    6.28414503761117    2.74259858184498
C        -4.83939288917663    7.01877720363904    2.13706787991347
C        -4.39051285136861    6.20153615323530    1.15346540131491
C        -6.12249476296547    7.77005879027583    2.18840091905196
H        -6.81243207164035    7.37303976326003    1.44890335531363
H        -5.95545910943175    8.82321020181132    1.96714060068122
H        -6.59158253611748    7.69060113474112    3.16520179330479
C        -5.09985839054236    5.77169779929878   -0.08243238677125
H        -5.21982192111537    4.68947512555452   -0.10367224714557
H        -4.56926930448665    6.08049088994101   -0.98119940911460
H        -6.08699033676458    6.22351039072297   -0.10948340225653
C        -3.90494296089784    7.77518467776414    4.39674454275123
H        -2.86484043260112    7.72092098889445    4.78314068565112
C        -4.25053169377822    9.25415001635888    4.26116781396720
H        -3.70139621508971    9.68014656825549    3.42543235445886
H        -3.93115198326032    9.76917876460193    5.16364478473173
H        -5.31532866168243    9.42061330177109    4.12958997078147
C        -4.80611683558958    7.04547410246882    5.39177359202614
H        -5.85165341860755    7.08756433127168    5.09486430663573
H        -4.70895392807907    7.50897274550571    6.36981589899880
H        -4.51072418527708    6.00123938889641    5.47123528774246
C        -2.08539902679477    5.28647939430486    0.61284632260319
H        -1.23420438271949    5.03046050239147    1.24293924523919
C        -1.65267435808007    6.44631388112262   -0.28593486593699
H        -2.45236066702679    6.75143180995469   -0.95513044318506
H        -0.79485505964493    6.14827375530868   -0.88328617117050
H        -1.37363119564845    7.30002720870852    0.32962484212789
C        -2.46474520533657    4.03446450287626   -0.17645098833494
H        -2.96349695822254    3.31494844819143    0.46914770679817
H        -1.55957486496675    3.57399379460578   -0.56512994918074
H        -3.10997377424403    4.26440879504146   -1.01754132621677
C        -1.00030106370383    4.88953409051168    3.59138802919098
H        -0.14519388460885    4.86291090081875    2.89890067262859
H        -1.63018037809597    4.00494749960594    3.42192025464997

