77
CSD_code = QALTEE | q = 0 | S = 0 | Stoichiometry = C24H44Cl2FeN6 | MND = 4
Fe       -0.73194010182229    8.13023443839344    4.31922928094582
Cl       -1.09887485025259    8.46020949359682    6.29605858892846
N         0.58131545264790    6.18285485030017    5.01030644087568
N         2.62691602120752    7.12599283312209    5.52633491545180
N         1.86712277875691    5.70190757986993    7.04575755947737
C         1.57099268238160    6.29940359328142    5.83494039680029
C         3.55733047623321    7.07270327626289    6.55360661624447
C         3.10091097768264    6.20214181510594    7.48182886786230
C         4.82468543411118    7.85442309051700    6.56746828368794
H         5.20972732295056    7.91429715504437    7.58199293900474
H         4.65866499363208    8.86708653110188    6.21210545678556
H         5.58500573231898    7.38566735171897    5.94246350699923
C         3.80094160845908    5.74536663039389    8.71449709761278
H         4.02727153359175    4.68146255455350    8.65836577432721
H         3.21391371106503    5.92816604433749    9.61231798625577
H         4.74066113392818    6.28134554140964    8.81211426468239
C         2.65407080929584    7.89387834597296    4.29851348848756
H         1.84193146769120    7.45807708347433    3.70320197128333
C         3.95575797873398    7.72376950833319    3.51760679390138
H         4.75898320038729    8.33143879960078    3.92321418848283
H         3.78796758811066    8.02980589645574    2.48841237746247
H         4.26345987267673    6.68088730181962    3.51983618961610
C         2.31646536231102    9.36586586789666    4.54205233150983
H         1.39084267303442    9.44114110922546    5.11870450145093
H         2.17063037573060    9.86354881098988    3.58710126821529
H         3.10379032893501    9.88008806580184    5.08768690581427
C         0.85939958286754    5.11010924454242    7.91275008542917
H         0.02926076809159    4.84220485771693    7.26308847796235
C         1.33487466798589    3.82261950677571    8.58993568679618
H         1.90734258036978    3.21732144248496    7.89082794614345
H         0.46679763138698    3.24918010011978    8.90654857919803
H         1.94092919660677    4.02129236083378    9.46723564018937
C         0.33255074357141    6.13879773889674    8.91604420396682
H         1.11675863012234    6.48813189219016    9.58191875628811
H        -0.45746611002766    5.69259409010867    9.51481654567750
H        -0.07676169413371    6.99441529169100    8.38255680862532
C        -0.38149286147438    5.10922540100884    5.00383668684284
H        -1.16892055767236    5.24823083559781    5.75890147203863
H         0.10683705701988    4.13484708173513    5.15179569606591
Cl       -0.36498690192477    8.46043810915358    2.34242210671813
N        -2.04525046326818    6.18305363760745    3.62788956591536
N        -4.09086046027013    7.12623135187720    3.11188825758364
N        -3.33097271828086    5.70227385217201    1.59237551396062
C        -3.03489866974505    6.29970812139221    2.80323623173297
C        -5.02130189303123    7.07289106258389    2.08464051514818
C        -4.56483563446553    6.20240128086931    1.15637462908048
C        -6.28872888556742    7.85449778700164    2.07084089707809
H        -6.67387193970326    7.91425597100654    1.05634839955085
H        -6.12276154159290    8.86720580645187    2.42610466852458
H        -7.04894702424108    7.38572938560232    2.69595969108927
C        -5.26489235770644    5.74551133445186   -0.07623755185891
H        -5.49074865724911    4.68150258215070   -0.02020933061628
H        -4.67810612798714    5.92868445486332   -0.97414398628779
H        -6.20486370575169    6.28109470452812   -0.17360859293688
C        -4.11800302437000    7.89413337299782    4.33970111625713
H        -3.30588906540537    7.45831330124857    4.93503356506255
C        -5.41970448409041    7.72410791089955    5.12060135845337
H        -6.22287212965621    8.33187424966752    4.71502562873129
H        -5.25188268992511    8.03008226723620    6.14980911710614
H        -5.72750346787247    6.68125498216385    5.11832854571214
C        -3.78034348706769    9.36610314037720    4.09612301037704
H        -2.85459550377127    9.44133848117923    3.51966836064910
H        -3.63472138873704    9.86386355814194    5.05106611007371
H        -4.56755121377324    9.88027268202276    3.55026838093413
C        -2.32309520349043    5.11097143744106    0.72521557133437
H        -1.49281798906526    4.84323267646389    1.37478058639946
C        -2.79819404667782    3.82347113167568    0.04778481711243
H        -3.37041750988349    3.21784926601261    0.74680853242713
H        -1.92994819019615    3.25037873629487   -0.26898878904323
H        -3.40436712652739    4.02211233707572   -0.82944335350403
C        -1.79669654580964    6.14003211035155   -0.27793705368591
H        -2.58107800114252    6.48930295284972   -0.94364706387740
H        -1.00662312805779    5.69418859132464   -0.87689977783055
H        -1.38754878571857    6.99563797011602    0.25569148368089
C        -1.08251095668800    5.10936030019705    3.63418132534458
H        -0.29505440899292    5.24845694308692    2.87916537025196
H        -1.57090887018912    4.13504874838430    3.48600756548720

