24
CSD_code = QALWOQ | q = 0 | S = 0 | Stoichiometry = C8H7BrN3O4V | MND = 5
Br       -0.27286896626658    1.49296205307447    5.97865396837955
V        -2.81075324632917    8.34469986845606    4.91788005880291
O        -4.16701275707850    7.62469168698692    5.01279424464101
O        -2.76905194434186    9.25618464817040    3.69094553645458
O        -3.07526825284614    9.81727386810251    6.27541221610444
O        -1.58140623099768    7.18048344182399    4.61065945375745
N        -4.22335869632423   10.26970064155012    8.16597499878123
H        -4.58485405810500   11.10372677792700    7.73009387676013
H        -4.67996341069736    9.93641158315385    8.99695730006560
N        -3.06501024566969    8.27230385913077    7.91611930401240
H        -3.43180147832355    7.89534377859521    8.79212503500887
N        -2.39244167430846    7.49001454687600    7.04767185435361
C        -3.46762492632292    9.46588061826932    7.38844574285242
C        -2.14762296466904    6.25815333702889    7.26610733636401
H        -2.42587431433930    5.78155074424469    8.21426859307227
C        -1.54763452145587    5.44234379287108    6.25017898331651
C        -1.22370552789057    4.11077515845071    6.53846402231403
H        -1.38412060308740    3.72754303550733    7.53601453679214
C        -0.70907141780998    3.29456692642723    5.55978140610331
C        -0.50635098822700    3.76573499115133    4.26366360770749
H        -0.11037633996417    3.10551456070975    3.50692396306593
C        -0.81411742783684    5.06935197719938    3.96242798367101
H        -0.67147711753796    5.45843480865090    2.96438783843418
C        -1.33533288957021    5.95285329564183    4.93344813918522

