145
CSD_code = QALWEH | q = 0 | S = 0 | Stoichiometry = C45H79O13Si7V | MND = 8
C         5.39924283994234    6.92661897397325    3.41391538948250
C         5.04643257400734    6.57652745384505    4.75879636933234
C         4.22868517928670    7.61994794264422    5.28807866203217
C         4.00970727557935    8.54920887949015    4.22692751357745
C         4.74912438628951    8.12305627631581    3.09140222735174
C         6.32532492589538    6.11605633171329    2.57216676185528
H         5.92338764635041    5.10877282548492    2.44159805608479
H         7.29830612910767    6.03427915563061    3.06091118881675
H         6.45463289754002    6.55714403893978    1.58817089260599
C         5.65328263249131    5.46634816232226    5.56135187355452
H         6.57509260959518    5.80706468419959    6.04012249663260
H         5.88683488724381    4.61617982302922    4.92307524984815
H         4.95796391941292    5.14169800501928    6.33544287222939
C         3.88434835861491    7.77940051267186    6.73939733441440
H         4.79811875869001    7.90013757788438    7.32468105436329
H         3.35533138173354    6.89361284834709    7.09605580930670
H         3.24961965573836    8.64770938978852    6.90042384992638
C         3.24241068645823    9.82701247814298    4.28081758240768
H         3.90669728643707   10.66767442889101    4.07173135919771
H         2.77947769007769    9.97583086273691    5.25331282639990
H         2.45872158603057    9.81373205687249    3.52129236126852
C         4.75215457633081    8.86150035034123    1.79389993908579
H         5.41240597841309    8.38985912692642    1.07252521956253
H         5.06805245320142    9.89523214420884    1.94527839186048
H         3.74573177410771    8.86937119945346    1.37162614260249
C         3.48022403708078    6.97921191998748   -2.23878929189300
H         4.36964535958667    6.47802697765194   -2.62874288768566
C         3.82310848135131    8.46021947086362   -2.07319196903596
H         3.04859007096909    8.95313241122922   -1.48585539182981
H         4.77865323503843    8.60691057864487   -1.57370354821961
C         3.82023960439778    8.98469367369229   -3.50612510059356
H         3.72057366569757   10.06872041304455   -3.55706796869559
H         4.75417563575761    8.70614842396763   -3.99678008239010
C         2.64142006888904    8.26205865846757   -4.16932495554858
H         2.85756381211332    8.03351411266216   -5.21258915079849
H         1.75292028390233    8.89321729106007   -4.14831771598356
C         2.40754291177363    6.98286221200430   -3.34122501076504
H         2.47657941301987    6.08303628303942   -3.94973650539838
H         1.41515291595433    7.00165058837370   -2.89247269888843
C        -0.73604352615522    8.26179490279126   -1.16554851777487
H        -0.70528442817143    7.80672921512013   -2.16064976097334
C        -0.09206653081487    9.64673264341773   -1.25862728527004
H         0.05670101769081   10.03632398774665   -0.25143239337977
H         0.87192109989877    9.62179412373128   -1.76203914055273
C        -1.12034995782778   10.49930272308596   -2.01352054318678
H        -1.11201990519211   11.53163609177070   -1.66535617231011
H        -0.89122650406174   10.50934731962069   -3.07969164545105
C        -2.48368761686264    9.82468236684287   -1.76876861345322
H        -2.91122186307230    9.48666851853058   -2.71318937793013
H        -3.19657234523162   10.50801805422001   -1.30903732265591
C        -2.19338962971452    8.62341417462983   -0.86145239940096
H        -2.87264918051212    7.79313282116188   -1.04142181108288
H        -2.27419290639593    8.91005265413627    0.18669660095804
C        -2.38367328086205    3.41715858667576   -0.50860195043991
H        -2.51458302152242    2.37220502655153   -0.22272176451160
C        -2.22642069345798    3.50773822437961   -2.03826875711272
H        -1.18240060662187    3.51066688059797   -2.34275088064058
H        -2.72510632600276    2.66446874147601   -2.52163623320490
C        -2.94078259004591    4.80211335418210   -2.40199144972982
H        -2.31941217802227    5.64743466365129   -2.11007253658821
H        -3.17276945257521    4.87507463489818   -3.46464117260567
C        -4.18886286882990    4.74693170711636   -1.52797357555852
H        -4.67523135127423    5.71614050265088   -1.42455454666455
H        -4.90830930326411    4.05109122342455   -1.96449467095496
C        -3.67624062105930    4.20831858113536   -0.18827128174232
H        -4.41872361550295    3.57723071126099    0.29840481687778
H        -3.45225207893957    5.03362278000463    0.48562353048884
C         2.48464140804722    1.75998507889130   -1.30515105724951
H         3.55052958028177    1.79295922820498   -1.53597157063143
C         1.68701431450922    1.69890447794184   -2.62222773739835
H         1.33041126161035    2.68021132135709   -2.92705532158109
H         2.31034803969657    1.29657658299740   -3.42381482952037
C         0.55074891770380    0.72948723080816   -2.32299977015520
H        -0.19643576916946    1.22601537294827   -1.70509491510450
H         0.07413668541470    0.34470091769925   -3.22454898143694
C         1.25074560835000   -0.35503796358324   -1.51244448167462
H         1.85222310352923   -0.97895160525927   -2.17685847164782
H         0.55411773187172   -0.99813462547214   -0.97646010557733
C         2.15443180721702    0.43947052489234   -0.56719197024189
H         3.05745038985133   -0.11235989676611   -0.30872944461011
H         1.61922774949027    0.65419833049703    0.35689130000642
C         3.62742565533587    2.39646930097595    3.74914492001600
H         3.77930490685398    2.81454961374948    4.75153544744195
C         2.87177390613122    1.07226811944054    3.88933762101337
H         1.99624068013274    1.16347054587105    4.52787884630200
H         2.54631109709433    0.74218857452832    2.90273396113706
C         3.91201101483127    0.10004632630459    4.45802710737032
H         3.86100737816451    0.09279399693125    5.54706909380156
H         3.73758466919010   -0.91765029887302    4.11135883570415
C         5.27999484967865    0.63563989670937    3.99478285613847
H         5.80903798014517   -0.08913793685764    3.37729570037206
H         5.90990938330478    0.85719046977085    4.85690562884197
C         4.97979548599422    1.92003613883930    3.21047671756184
H         4.87613738279482    1.70036838469059    2.14810502283564
H         5.76520778712206    2.66592573360258    3.32798340077878
C        -0.99097575974586    3.55220511874568    4.85170826441994
H        -1.92934981940567    4.02200892648947    5.15944452262233
C        -1.24003996127593    2.04978312023305    4.68997516342359
H        -2.14678748747773    1.84711420758648    4.12390140761635
H        -0.40306899526521    1.60555893971124    4.15250956431892
C        -1.30602793978861    1.50199912001388    6.12366123199870
H        -2.34273099858758    1.38768872187632    6.44076899532288
H        -0.83270127251069    0.52290039991914    6.19108778065663
C        -0.58825905272200    2.53952395190717    7.00797523692471
H         0.19767510298547    2.08542248254569    7.61027760966167
H        -1.30025849819891    3.00623699025983    7.68958424345999
C        -0.02692872625582    3.58701639999189    6.04207478331979
H         0.04604049426477    4.57678721804021    6.48852943865454
H         0.97009376996673    3.30618074207208    5.70229844043535
C        -0.39449309042771    8.69525935458365    4.27326160446671
H        -0.06381267298565    9.69749717540445    3.99303234554536
C        -1.93988079630246    8.67350824490995    4.36767335697565
H        -2.37480639643667    9.60390308217819    4.00440045788892
H        -2.33882302869589    7.86021199360915    3.76418714468348
C        -2.26448380862543    8.42948529849397    5.84309952304257
H        -2.32960064786196    9.37862183917856    6.37962582551956
H        -3.20420569405554    7.89606945301559    5.97631782706708
C        -1.06005403228318    7.63939811278924    6.34127285090585
H        -1.09976370517371    6.62317041664648    5.95257754130288
H        -0.99138980774463    7.60996391292309    7.42871537438441
C         0.11030814215926    8.37118368494991    5.69508284991310
H         1.01603030149187    7.75919382727640    5.67402578179788
H         0.31194138573239    9.29423097541217    6.24574037578325
O         4.11346465698930    6.16493862595701    0.43103507053752
H         3.92985380796364    5.78656855594129    1.31716485556855
O         2.46206094827058    4.62549344206619   -1.05193057143348
O         1.64335227763761    6.95009327485735   -0.02174884586365
O        -0.69455539164875    5.66451655768801   -0.05873699372279
O         0.43121900188964    3.25952882938818   -0.02305703081150
O        -1.14456982476238    4.01439944493911    1.99028966858150
O         2.85129731767237    3.16601673840341    1.12263442670195
O         1.20353593345440    3.76579256133789    3.11870951108476
O         3.45820385579817    5.12408213060281    2.78115797459101
O         1.88740423522609    7.38431033036324    3.05964720914861
O        -0.31174969942757    5.98083220299280    3.53426461149842
O        -0.26066084376786    7.76665033053692    1.55185415347261
O         2.37747536030667    5.77935148452276    5.07172871013168
Si        2.91569826739316    6.13742248055197   -0.63930256014741
Si        0.04011724622575    7.09511066013431    0.10939423780399
Si       -0.87381610737261    4.12099721447951    0.39662874090574
Si        2.03216376629189    3.27854146745750   -0.26845328674515
Si        2.75053871225632    3.69030721124889    2.65679422728166
Si       -0.27220782085561    4.38588722131582    3.31072953158719
Si        0.28721448409901    7.41080505739551    3.03963489924711
V         3.06165248670124    6.44384286785098    3.88928382474396

