99
CSD_code = QALWUW | q = 1 | S = 0 | Stoichiometry = C51H41ClN3P2Ru(1+) | MND = 6
Ru        3.81167108861645    7.83558096616067    5.03197943487512
P         3.91816286678483    8.34187605943125    2.74333069457572
P         3.39937253486725    7.40741241477772    7.30843513540624
Cl        1.53575929811990    8.36109512563776    4.55422651189552
N         3.86551112367292    5.81909072719217    4.78244023842100
N         5.65907557453977    7.57036291787369    5.18538151038060
N         4.33953540415334    9.72972631316076    5.46489875420858
C         2.85696176013977    4.95365825993145    4.69162651056043
H         1.86250160482021    5.37996729461408    4.70252894487975
C         3.03918522965155    3.58809172668780    4.59905098235719
H         2.18462552617880    2.93581243483575    4.52799960068081
C         4.33359715030959    3.08164746280153    4.59815652572123
H         4.51257297882399    2.02136338737881    4.51692551227274
C         5.38745500975583    3.96620912636694    4.71641348869745
H         6.40391418458314    3.60946455031841    4.73935132224257
C         5.13476075529035    5.33342928570620    4.81858319930303
C         6.17188024732757    6.34065912601734    5.00300392193041
C         7.54828488771737    6.14526781171834    5.02409560411108
H         7.96708572875801    5.16432496704098    4.87628947228355
C         8.37782635790000    7.23771044591570    5.22381288389389
H         9.44785733613125    7.10932398327123    5.22668616704860
C         7.82984508364138    8.49651110415168    5.42458874197381
H         8.46916388949555    9.34893454467942    5.58296137041484
C         6.44737272546861    8.63774532511146    5.41383773125118
C         5.68078980892508    9.85888195670970    5.63718394164484
C         6.24080518247724   11.07715820428323    6.01663450334191
H         7.30696609283998   11.15656860604988    6.15434057271013
C         5.42192247607368   12.17276013137909    6.21980823815451
H         5.84057162927209   13.11893872004216    6.52390937867072
C         4.05621696753894   12.03045352489594    6.01407946403822
H         3.38174554909746   12.86036856180813    6.14296897150410
C         3.56396243732151   10.79782199783404    5.62897195956392
H         2.50960672719757   10.65687167982971    5.42707311915280
C         2.99501969115075    7.40298915296966    1.48543988382486
C         1.94248040260276    6.55476982476631    1.80035010202303
H         1.61844593226969    6.46183165742314    2.82482888291548
C         1.28228055859585    5.86746771485651    0.79553915031648
H         0.46206655457776    5.21178490839030    1.04636306442423
C         1.66534246399007    6.02752075217077   -0.52444038835354
H         1.14870789244427    5.49283306876903   -1.30680610348156
C         2.70768892084592    6.88513778597199   -0.84447401290178
H         3.00036822188108    7.02089891267174   -1.87464479832565
C         3.37284574247037    7.57043679095459    0.15265024313819
H         4.18369533624346    8.24191632519814   -0.09640030427982
C         3.45273557967029   10.05633528750477    2.35417411675633
C         2.22507937665363   10.30226776074438    1.74243043380141
H         1.58634856319110    9.47561493237608    1.46763007723106
C         1.81578246613990   11.60040097738663    1.49953602058318
H         0.86307479355438   11.77902546442441    1.02503515818615
C         2.62083302449282   12.66658652859042    1.86495601745748
H         2.30238505458048   13.67893669096476    1.66918953044682
C         3.83240769032805   12.43086498100194    2.49281306977611
H         4.45970178052256   13.25806516151042    2.79150717980693
C         4.24275294115622   11.13522843787767    2.74942198497660
H         5.18162850048732   10.97018032926312    3.26120496859042
C         5.60622848168163    8.06212489940374    2.09304236971545
C         6.53163132521467    9.02964427963268    1.72486192516229
H         6.26229688367133   10.07425203062897    1.71694353611581
C         7.80318048445495    8.65613232888009    1.32095835283844
H         8.51249219501428    9.41663206543165    1.03047173085587
C         8.16349459084159    7.32090929251977    1.27740135187593
H         9.15631448001464    7.03799418203898    0.96326242325406
C         7.23678787828674    6.34732683145784    1.61571741261691
H         7.50067072871261    5.30185802543143    1.55661947369541
C         5.97010833108625    6.71646210466661    2.02130332819144
H         5.23248376550599    5.95770568195335    2.25861855946215
C         2.11496267403903    6.24471847851654    7.86576773322328
C         2.25449808771442    5.56521197881937    9.07398875552607
H         3.15708946538824    5.67483410790917    9.65898099605532
C         1.23171218512868    4.75312115314130    9.52611782645155
H         1.34341226813998    4.22305885716593   10.46006159940696
C         0.06273915696254    4.62755570742475    8.79126688731872
H        -0.73225229898688    3.99210262390255    9.15065868655292
C        -0.09111584690095    5.33134341459497    7.60873672048435
H        -1.01054319547577    5.25481925847699    7.04822558670853
C         0.92831559419059    6.14534351100640    7.14641257394204
H         0.79961898645060    6.72491337071087    6.24191201429036
C         4.95595188985858    6.71831188537867    7.94365428608251
C         6.01509600117097    7.57066178620028    8.25354797965566
H         5.86006242994628    8.64266416022903    8.24735460012725
C         7.25632546211756    7.05203254266443    8.57214946799004
H         8.06741280092221    7.71828621862270    8.82565225106940
C         7.46076917415026    5.68137578375902    8.56355377477754
H         8.42968031876181    5.27920906507884    8.81618493453397
C         6.42123945886618    4.82959107595930    8.22854644687644
H         6.57909544446257    3.76157476428217    8.21428827800530
C         5.17698202918736    5.34313231339234    7.90975869047248
H         4.36615903649299    4.67609204231557    7.64580153772708
C         2.95950999655387    8.79695571744540    8.39652858402316
C         1.89289951222260    9.58183789955632    7.96163365868407
H         1.41528802558891    9.34851607208726    7.01829360185835
C         1.43718602234324   10.62536247513076    8.74458093978970
H         0.61090961768249   11.23162966993501    8.40547146300912
C         2.03427778646508   10.88336146088790    9.96843441702400
H         1.68147919262882   11.69877859696611   10.58125465667534
C         3.07083930969108   10.08152453181656   10.41726320874213
H         3.51805693240354   10.26622354272830   11.38254517548400
C         3.53255841276191    9.03284372643033    9.64097545239318
H         4.32555821888403    8.39938829631153   10.01151806619675

