41
CSD_code = QALYUY | q = 0 | S = 0 | Stoichiometry = C18H18N2NiS2 | MND = 4
C         2.50548804565294    8.34096876570559    7.64396850752091
C         1.40142215162770    8.88472817417966    8.32503700118677
H         0.57013583070868    8.22947301181460    8.53549755204831
C         1.37578294004484   10.19726445363039    8.71697722196004
H         0.51823705841123   10.58547384356566    9.24629982307214
C         2.45376128901709   11.03893500839532    8.42744582249508
H         2.42968740264751   12.07461546311448    8.73002502726771
C         3.53385339341233   10.53761455620473    7.75107210293680
H         4.37116619964242   11.18202250948778    7.52006228872208
C         3.60061928093265    9.18680159886238    7.35404726110297
C         4.76288006043229    8.77108066977068    6.64289313806905
H         5.40944963470042    9.59775050809724    6.33039607048245
C         6.37377716164015    7.49443508507982    5.56776945697037
H         6.41566821086488    8.33546932433670    4.86308760768108
H         6.38651044651172    6.56691401724482    4.98737193442909
C         7.60666180161690    7.55492687225549    6.48124845895982
H         8.45776841211891    7.90826618500302    5.89556561629516
H         7.42031887715504    8.28371657859705    7.27428842181220
C         7.97168967455094    6.20956460898211    7.10180386537072
H         8.32376926911354    5.53166217301784    6.31997122821281
H         8.79221560492467    6.36326432185874    7.80567064810419
C         6.80675656839774    5.54285930708588    7.84659113784526
H         7.21420899217964    4.81658609147166    8.56209034727558
H         6.24794320727496    6.29656172327633    8.41071988648351
C         6.28979392845955    3.68322793709440    6.55330829096252
H         7.25821276625320    3.32469969764748    6.91698672382402
C         5.60763782389664    2.76055542146351    5.70823649683559
C         6.33540453534192    1.65278644655985    5.23082669578737
H         7.38075994213674    1.57252835652076    5.49649792001400
C         5.75832229112668    0.70073328063629    4.43276345837427
H         6.33873682726462   -0.13252365336580    4.06720856931890
C         4.40477361099655    0.81291277132127    4.10207315548849
H         3.93995486620330    0.06233146067723    3.48012084114020
C         3.66526969411361    1.86767975626691    4.56935664432861
H         2.61755847147102    1.95783674716168    4.32657335398109
C         4.23929990394953    2.87159767316228    5.36968900538506
N         5.12708393540933    7.57490355658925    6.32693806071452
N         5.89772537146589    4.84989216062487    6.93561597097697
S         2.36168756860351    6.69492432383429    7.18283404388960
S         3.17036277718199    4.10330731139264    5.90551530889229
Ni        4.24954417254683    5.84135190137572    6.59765503378299

