43
CSD_code = QALYOS | q = 0 | S = 0 | Stoichiometry = C18H20N4Ni | MND = 4
H         4.85848471828498    2.31496004430093   14.52912412208920
H         4.85175125335613    0.27309532658490   14.87267182636577
C         4.62774821413125    3.59500360648823   13.08505249852420
C         4.03769843778459    4.54644126934967   13.96067939598360
H         3.89137766859227    4.26615222169653   14.99580334588493
C         3.62799773386626    5.77073970903598   13.51570502799987
H         3.15952064306743    6.46121113466538   14.20282856606817
C         3.80717344746847    6.14872362912663   12.17745745029635
H         3.47230419625743    7.11799239975561   11.84168037317544
C         4.42767623033525    5.28438736038199   11.31723252801370
H         4.60166292815117    5.56969893103074   10.28852773164433
C         4.85635716966773    4.01308387845692   11.73778329286480
C         5.65695352434743    3.21624077491448   10.88924217013897
H         6.05218726062373    3.72691253178912   10.00575516443504
C         7.17021455528240    1.56651340474551   10.29001883966647
H         8.05375421381566    2.12129271379120   10.63369893950481
H         6.99891910734866    1.83961956038080    9.23923955995584
C         7.47649121941398    0.07632088635813   10.39044229232642
H         7.37999280865409   -0.22347533436809   11.44197317940028
H         8.50843761689690   -0.09995957440446   10.08168017398448
C         6.53880707097161   -0.76077474134048    9.52615560165759
H         6.70036585296900   -0.53626792407533    8.46952217615953
H         6.75246936954593   -1.82035023891990    9.68517627600739
C         5.07317107888554   -0.48342153945304    9.87961572363222
H         4.80314510257920    0.53433326970020    9.58948295489288
H         4.43177657968974   -1.17611887258144    9.31716338599272
C         4.47710602865568   -1.83800711390471   11.66346181617699
H         4.29477021156960   -2.57166506110844   10.87256194908188
C         4.23783588443902   -2.30603262613747   12.97326062534732
C         3.81354214329026   -3.63354137134396   13.17098674439622
H         3.69347721656547   -4.26844518847950   12.30363643426878
C         3.55855741323578   -4.12341430791058   14.42208763619468
H         3.23624953159995   -5.14384016376886   14.56119643963636
C         3.71641435888240   -3.28231205184181   15.53315168963832
H         3.51187686142709   -3.66716892076885   16.52229855954084
C         4.11963868985140   -1.98720562828382   15.37895189380583
H         4.23826583133502   -1.34728472225474   16.24384277182904
C         4.40647090826466   -1.44446613701771   14.09688003745787
N         4.98470812830384    2.39248027226270   13.51993652217603
N         6.04491062026313    1.99923393821538   11.11494698923883
N         4.86550715339312   -0.65251061457147   11.30935942971968
N         4.82509331505254   -0.19133803615994   13.96369650405352
Ni        5.22543770188387    0.85306330566311   12.47693136077269

