43
CSD_code = QALYEH | q = 0 | S = 0 | Stoichiometry = C16H16AuI2NO4S3 | MND = 2
Au       12.50423538804259    4.02492688294859    1.41409845739290
I         7.70021900222796   -0.66565825999581    6.95688233898411
I         8.92312779235835   10.85592363887526    2.02012213935856
S        14.75063654518955    4.12094386118460    0.88729595542200
S         9.12602939393146    4.23832305004131    1.87341346340710
S        10.91432065529898    4.21580638934566    3.86063923426852
N        10.67026618932632    3.93700207541264    2.28569022839654
O         8.91738751117148    3.77040376078082    0.53478667758616
O         8.28575174985626    3.71037859757581    2.91210173945122
O        12.34350197791048    4.02576502043363    4.06415675431043
O        10.39353428783505    5.49073105825414    4.26196708623306
C        15.26188142348391    2.37269523219023    1.13719226419704
H        14.51477643481362    1.71875196703312    0.69861136135832
H        16.21119682472065    2.24739500446024    0.61579838833910
C        15.42535913694918    2.22148294536567    2.63754820417756
H        15.95879680587661    1.30223786442585    2.87907682163197
H        14.44778398933191    2.20921768737987    3.12524618550551
C        16.19254308566801    3.46212524207532    3.07778473157571
H        17.20215788528562    3.43975386453250    2.66231134648982
H        16.25944372305697    3.53054530023961    4.16243702336237
C        15.41810068405175    4.65061889144162    2.53113454136675
H        16.03745791357624    5.52890603523679    2.36428858149913
H        14.57426700856478    4.89598703016393    3.17121357615966
C         9.01075676082078    6.01799226448454    1.88168360452493
C         8.18011025867711    6.65206779834212    2.78255811041858
H         7.58165356730616    6.05052192314623    3.44711506648993
C         8.14691153836275    8.03555760442957    2.82380210333497
H         7.50686357061022    8.54692844056414    3.52639180541598
C         8.95415389828908    8.75018680094018    1.95634696670142
C         9.78238124596855    8.11892855838280    1.04447337986017
H        10.40094440818101    8.69441277978489    0.37246272855814
C         9.80668725844129    6.73484772747063    1.01039599537813
H        10.43400244341384    6.20120991191401    0.31275872561655
C        10.06652022119841    2.91367803767604    4.72332206761110
C         9.24836705616137    3.21259882651061    5.79323881638628
H         9.14125698969333    4.24200304386299    6.09524794604532
C         8.57026251011919    2.19147413821253    6.43680325626483
H         7.91978915507263    2.40778498278954    7.27043319870021
C         8.73167613457189    0.89288011616199    5.98700446888875
C         9.55567903495348    0.58972431929894    4.91675876220636
H         9.66313767402050   -0.42907427032816    4.57695911572170
C        10.23122856528283    1.61673915666677    4.28088081198116
H        10.86824230033011    1.42817470026879    3.43126596943148

