43
CSD_code = QALZUZ | q = 0 | S = 0 | Stoichiometry = C18H18Cl2FeN4 | MND = 6
Fe       11.07326271892143    1.26757365874658    9.54334692444469
Cl        9.40416857866638    1.65097025137932   10.90117856606817
Cl       12.39053779929616    1.01975818410105   11.30079660392270
N        12.59870046455044    0.92790525674064    8.32375545526179
N        11.57269665150624    3.08885268057212    9.38840045138578
N        10.78735682843778   -0.60296048164053    9.46411188904467
N        10.02864683965863    1.42530322802906    8.00495844683054
C        13.55775923567343    1.98081353311130    8.65561174191957
H        14.35045635040955    2.08699637504986    7.90395267404123
H        14.00098539079326    1.72385470141421    9.62379815011408
C        12.79667262391891    3.25743373660700    8.86418457648906
C        13.31132287738229    4.50986975246668    8.58386861407276
H        14.30084569438116    4.60292298155265    8.16244391362473
C        12.54705049083842    5.63414917534546    8.86578279502603
H        12.93015550027786    6.62267156522228    8.66373128865905
C        11.28842219394207    5.45263315262431    9.41738204288282
H        10.66151722840623    6.29423210904856    9.66397002439113
C        10.84111077110516    4.16668091028085    9.65874519760870
H         9.87679266568966    3.96661184196805   10.10218086205830
C        13.03329381932375   -0.42239013040888    8.67584116978613
H        13.55141292286227   -0.35406008162536    9.63862694201416
H        13.70406726077353   -0.86305257487362    7.92698783489730
C        11.81576499121977   -1.26632894857573    8.91339534406001
C        11.75534800356463   -2.61982693242076    8.63772039607310
H        12.60394141324173   -3.11689656384378    8.19252430998995
C        10.60148240406089   -3.32371466921813    8.95436246724277
H        10.53225126467551   -4.38185531963312    8.75432940234575
C         9.54994483188704   -2.63510185460599    9.53910253521856
H         8.63850529081687   -3.14009053466361    9.81532739749400
C         9.68406504759448   -1.27923329794413    9.77329166516253
H         8.90404381220129   -0.69488440653643   10.23897582898653
C        12.15400149980234    1.01723150409927    6.93212684498248
H        12.41662362695142    0.10440119806048    6.38479282169062
H        12.65667399532642    1.85248201881477    6.43167774074602
C        10.67117149553738    1.23659637035684    6.84431374142395
C        10.02733847111417    1.25464456102259    5.62002142022505
H        10.59753886763520    1.09346564019574    4.71725694672374
C         8.66047764306763    1.48106883923165    5.57048272423241
H         8.13675803586687    1.49875485976667    4.62787961817786
C         7.99654897855790    1.68450900956518    6.77236793785445
H         6.93486880795864    1.86895481740709    6.79753703249552
C         8.71064944319109    1.64772840172201    7.95104295139231
H         8.24146716891421    1.79702548148764    8.91171470893879

