71
CSD_code = QAMDOA | q = 0 | S = 0 | Stoichiometry = C38H20FeN10S2 | MND = 6
Fe       -1.23463497831356    6.17525541628783   21.03918512388030
N        -0.29096762334940    4.84451970394150   20.05293771263635
C        -0.09108688919855    4.41172132546868   18.97637376606599
S         0.24677524197959    3.84694691425145   17.53795921660135
C        -2.04931354522485    6.73251158106812   18.51235048213210
N        -2.52255042956123    6.12432788064887   19.61948153808362
C        -3.62883630411095    5.40390580719460   19.50246973685542
H        -3.96401824839810    4.91826678520193   20.40656223430518
C        -4.30509848476885    5.25218649749311   18.29709242409920
H        -5.19166064207230    4.63936462820989   18.26110592173679
C        -3.82759303586802    5.87173225440505   17.15630006351151
H        -4.31236880673512    5.77006235277852   16.19875723381092
C        -2.66876400220826    6.64216135274586   17.25639350561103
C        -0.84697997553937    7.47547347947939   18.69884202191140
N        -0.34253235860049    7.44664686629101   19.95315273839177
C         0.76548549903535    8.14784600619129   20.17636572843844
H         1.14916921639581    8.11801658688810   21.18575143098317
C         1.42162061080090    8.86698590706153   19.18970105113582
H         2.32352106318332    9.40461016064179   19.43638820978495
C         0.92637429943788    8.87410167058560   17.89544251409935
H         1.41679389893865    9.40108341770797   17.09353249215567
C        -0.24564395818412    8.16612221083635   17.63631984399715
C        -2.06403763701304    7.33333938591604   16.13787600910781
N        -2.64707883057547    7.26173290054099   14.95744757939265
C        -2.07403664215997    7.90645061656731   13.93139654450259
C        -0.87732863692223    8.66382182913284   14.12060547885173
N        -0.30148874390902    8.74462902107023   15.32904763842508
C        -0.86294266070493    8.09294415498863   16.32728107166403
C        -2.65904538812388    7.84803896118958   12.64847936031176
H        -3.56052147293801    7.26853220140827   12.52577431426239
C        -2.07628999200465    8.51180553206957   11.60695222532732
H        -2.51784465873588    8.46868839713287   10.62236101871466
C        -0.89684551587113    9.25872708275047   11.79385235612378
H        -0.46194680674624    9.77093103422230   10.94841078503766
C        -0.30446626054610    9.33849866348212   13.02181503148770
H         0.60020994478636    9.90286898826405   13.18552547484720
N        -2.17800041468087    4.84434925128452   22.02514905677403
C        -2.37992758113575    4.41133701764462   23.10123633909887
S        -2.72042516757488    3.84649495175071   24.53899009609599
C        -0.42055650074440    6.73226735397285   23.56618495604023
N         0.05308650588826    6.12449659182115   22.45899394244251
C         1.15954855690227    5.40435156929597   22.57606803605651
H         1.49508542054237    4.91906751780642   21.67191631893954
C         1.83553783375698    5.25248932443808   23.78157799530324
H         2.72228081553009    4.63992519966664   23.81761245731518
C         1.35757968778730    5.87157676584106   24.92244011295484
H         1.84219348470112    5.76974676204176   25.88004993829574
C         0.19858148814996    6.64175151109952   24.82229320278693
C        -1.62299131780148    7.47501849590481   23.37951969550677
N        -2.12708735580492    7.44635983234992   22.12507735265267
C        -3.23516283224959    8.14741404045047   21.90170585732761
H        -3.61854363372442    8.11777204613570   20.89219845214095
C        -3.89173879562716    8.86618472248564   22.88834496182502
H        -4.79368974750430    9.40366311387080   22.64152631985673
C        -3.39683812347398    8.87313832494567   24.18272736280139
H        -3.88757075369816    9.39983151621711   24.98463409533878
C        -2.22471838941869    8.16537887742553   24.44197612910038
C        -0.40653532386086    7.33268704576307   25.94077834931881
N         0.17614548805509    7.26106022097909   27.12138786318555
C        -0.39706335785334    7.90597883532328   28.14723535319770
C        -1.59354294421063    8.66360840176017   27.95762224227390
N        -2.16919504246655    8.74416643970317   26.74908976996842
C        -1.60761341808764    8.09225856631852   25.75108859120860
C         0.18760046150268    7.84775517847367   29.43032371677824
H         1.08885182923946    7.26799125777268   29.55347073745263
C        -0.39512043713918    8.51212929633887   30.47149162913183
H         0.04623757672324    8.46922631306654   31.45618028655643
C        -1.57423999628904    9.25944705491331   30.28412051805270
H        -2.00906117882032    9.77220351336443   31.12926713898011
C        -2.16639335287479    9.33890140165057   29.05603657596259
H        -3.07084072993099    9.90351411400716   28.89189467099120

