53
CSD_code = QAMDEN | q = 0 | S = 0 | Stoichiometry = C24H23CoNO3P | MND = 4
Co        0.82932953313827    2.48615913123992    2.98425337992401
P         1.66984588264586    4.50730351339005    4.10261282810915
N         0.65569262415134    6.00596431769270    2.32620522759624
H        -0.09085931503274    2.95685338697508    1.95397598538450
C         1.55500959006799    1.12715393063653    3.85107617201934
O         1.89250509060633    0.15904131626692    4.36125126334145
C        -0.59085584098446    2.17856752969302    3.93890836620823
O        -1.50987293172536    1.86429808203683    4.54924389508916
C         2.04929032359195    2.50028894171242    1.73832158567792
O         2.86091442076073    2.50775404585658    0.92926132184813
C         2.97667809486663    5.78841705400722    3.83787172298222
C         4.29964167587970    5.61239978178777    4.23160123298691
H         4.61752526197750    4.69010519775992    4.68979986256172
C         5.23884438047382    6.61616383975283    4.06792000665335
H         6.25743193431178    6.44612068345352    4.38401967052044
C         4.87483678737042    7.82748433092340    3.51064886633048
H         5.60258579628911    8.61445992606845    3.38277513006191
C         3.56334547007107    8.01873220578725    3.11531514126143
H         3.26305240031421    8.96042522430825    2.67749826815981
C         2.61869956499710    7.01731083122651    3.27194552969742
C         1.20404546168499    7.24767686240641    2.83667198375211
H         0.60953560855572    7.57029834113312    3.69873920148905
H         1.16413573133790    8.05152819113193    2.08303452336886
C         1.30653424060185    5.67302479671199    1.06873499824395
H         0.85634308267007    4.77662984852793    0.65183936360573
H         2.36581684026514    5.48530723806873    1.23938283457418
H         1.20862230082946    6.48804435720624    0.33899499665589
C        -0.77728623817192    6.12234112854700    2.11914121428537
H        -1.17661642738085    5.15522474764510    1.82214620357802
H        -1.01093342426593    6.85741552847054    1.33739878992286
H        -1.26033462376416    6.43282255151262    3.04354760226372
C         0.58023063810888    5.45683520919047    5.22243815907539
C         1.11488650026702    6.38941952697623    6.10966923988282
H         2.18075353197578    6.57020399448512    6.12464220535095
C         0.28767103623671    7.07802651808758    6.97709354048144
H         0.71085214907980    7.79950939963582    7.66102289506834
C        -1.07847754520874    6.84172189415986    6.97603281008835
H        -1.72100282181782    7.38079425271414    7.65644248530882
C        -1.61436841499967    5.91002407783983    6.10396540848451
H        -2.67730375767637    5.71699497177249    6.10240573117009
C        -0.78765159840782    5.22269448787732    5.23110590028817
H        -1.20178025512945    4.49866271692472    4.54580833126360
C         2.55317564598471    3.50534068978090    5.39381125811286
C         2.15452865995684    3.42021076234160    6.72118898939119
H         1.31075413371220    3.99391595406418    7.07585436954807
C         2.82170468608400    2.58505692944262    7.60350468136241
H         2.49242350428028    2.52587285083142    8.63096622150979
C         3.89773914683609    1.82845546063809    7.17727867315400
H         4.41634295567296    1.18107234416202    7.86871643156161
C         4.29656341233976    1.89190658221047    5.85111998272565
H         5.12565776057969    1.29206732521045    5.50384186249588
C         3.62053151065613    2.71029775156278    4.96803066247575
H         3.91296583014541    2.72909944255116    3.92372299463735

