43
CSD_code = QAMHOC | q = 0 | S = 0 | Stoichiometry = C18H20Cl2NPPd | MND = 5
Pd       -6.08478196358396    6.62531814201551    6.31969108007404
Cl       -5.78700123747965    4.94913033791391    7.76135374991292
Cl       -6.59253600377992    5.18120683189386    4.64530444856585
P        -5.26122418424378    7.98221601628947    7.90919509033330
C        -5.97448773093007    8.35520527644370    9.52123065078809
C        -6.75342613353602    9.48518328059906    9.75050066219452
H        -6.88439851548070   10.21717670603162    8.96703889937498
C        -7.34995664506593    9.66374200657369   10.98575957597522
H        -7.94708074751787   10.54467848145112   11.17011344988061
C        -7.19136319486748    8.71246435558401   11.98108911348153
H        -7.66295941806742    8.85584262413543   12.94185252082081
C        -6.44179204125446    7.57047573038137   11.74188591189468
H        -6.33536588565720    6.82184778137288   12.51246345487571
C        -5.83741549808667    7.38506350432660   10.51299535000603
H        -5.27031277080358    6.48880817784823   10.29909567322128
C        -3.52981717074204    7.49024180826931    8.22081853709584
C        -2.79267219823684    7.90623936220917    9.32364070112631
H        -3.26762670243563    8.48188165906650   10.10666441510719
C        -1.45672641968780    7.55982315541476    9.42700165357935
H        -0.88651182768568    7.87423061681024   10.28868329787363
C        -0.85247982769277    6.80869382097017    8.43208890382382
H         0.18867522018732    6.53693613085889    8.52075007855477
C        -1.58263306457317    6.39646539667535    7.32787161280573
H        -1.11214996310923    5.80339404910094    6.55823562244355
C        -2.91814876585433    6.73725395837108    7.21936363697600
H        -3.51179377166605    6.38931099334695    6.36298164838774
N        -5.16986260462795    9.47990673283000    7.10916827676353
C        -4.91569310225576    9.34107078631748    5.67341637112493
H        -3.86066396979890    9.07839037751634    5.48583670950248
H        -5.09228467927679   10.32062449490134    5.20947461656765
C        -5.81619637020240    8.32541563578492    5.00750302167516
H        -5.45114356632507    7.95244761439447    4.05003836718641
C        -7.15165269271465    8.19713482124239    5.31089876224216
H        -7.60187639272277    8.83010522217374    6.07455405882984
H        -7.82634612265054    7.72336865235248    4.60340299623985
C        -4.38882626418190   10.54835298664876    7.71676933910518
H        -3.34886735274981   10.53217200324036    7.35506258540098
H        -4.35297774381424   10.37784210512940    8.79884486105172
C        -4.97133463990951   11.91138507097528    7.47420261432495
H        -4.31975760001729   12.72302892480916    7.76976466067124
C        -6.16752714013405   12.15753881549163    6.97487335746966
H        -6.83438890420120   11.36522356403174    6.67887920432182
H        -6.52811439256632   13.16226198820692    6.84004045834990

