65
CSD_code = QAMHIW | q = 1 | S = 0 | Stoichiometry = C29H32ClNPRu(1+) | MND = 9
Ru        2.13729377890493    3.39073012432661    2.66409956189837
Cl        1.13813295330381    5.52260816825668    2.75536339772263
P         2.92886753795034    3.93802316408159    4.75961269386890
C         1.26348921839005    1.30991707820527    3.04732636674985
C         0.24458971078090    2.16589357450908    2.54149286701404
C         0.39139181935496    2.75957147923103    1.24946675413720
C         1.62695767260200    2.65958089415799    0.55865933590507
C         2.66972692947718    1.83209806596901    1.08419743905641
C         2.48887281256862    1.16437774861012    2.32826173507858
C         1.03460057669639    0.46510094533117    4.27156471859756
H        -0.01773399729713    0.41930965689545    4.53194508934236
H         1.58634868790473    0.85008734964045    5.13091263906028
H         1.37333734252208   -0.55165353880233    4.08098140171061
C        -1.03218074423188    2.38676013934507    3.31051019962284
H        -1.79693991741062    1.67112355939567    3.00484071145114
H        -1.40699341286994    3.39212582712410    3.13325649170789
H        -0.86789922948094    2.28560788135117    4.38007977807964
C        -0.76236814074184    3.49067608529657    0.63314203360769
H        -0.74261583153833    4.54165062012889    0.93084821924480
H        -1.70715384986838    3.06353184528328    0.95736221431946
H        -0.72266220282835    3.44210697170921   -0.45110321773019
C         1.77212221289032    3.36792007878132   -0.76283473880382
H         2.81210546309964    3.51777671696372   -1.03704190127884
H         1.30289677502373    4.34850079747053   -0.71648263942190
H         1.29300987028818    2.79236874714087   -1.55654328701778
C         3.90450750758315    1.52113717946778    0.27988531214389
H         3.80843704154513    1.84016982800000   -0.75230295927674
H         4.06969945821756    0.44497578025985    0.27345002030035
H         4.79088414379752    1.99476277797174    0.70388028340994
C         3.54089449482001    0.21406633606996    2.83336611525029
H         3.35712032487466   -0.78568268124811    2.43510127324828
H         3.53359482319367    0.15633421036374    3.91815335402461
H         4.53616127700954    0.52273255963860    2.52727917117599
C         2.26913453288679    4.98078937861435    6.08069446734754
C         0.92005199918154    5.31603588870587    6.08557444631511
H         0.27970058821958    4.95464823705367    5.29318825769689
C         0.42295233213727    6.12568767053854    7.09192574435485
H        -0.62242112734463    6.39323043482408    7.09937255736936
C         1.26731343198023    6.59453778540941    8.08501030738789
H         0.87868660253096    7.22921379104855    8.86653079656785
C         2.61170509399697    6.25064457981744    8.08322302563193
H         3.26400143935208    6.61511076742185    8.86230916093276
C         3.11877964621609    5.43977729511441    7.08616877415987
H         4.16118842624854    5.15029486408205    7.08743825487387
C         4.00219355746788    2.74167617540117    5.59887351085371
C         5.18896723085452    2.31900988904550    5.00601585306472
H         5.50728302609821    2.75883744370993    4.06927140091144
C         5.95834845059567    1.34913394595862    5.62150211636979
H         6.88591771788515    1.03143637465511    5.17004024689168
C         5.54007236582319    0.78475954703274    6.81711589645326
H         6.14292643068999    0.02803811728202    7.29444853543526
C         4.34953516637306    1.18999367235905    7.39948608584376
H         4.02309230273610    0.74768968271467    8.32813658095466
C         3.57695172966856    2.16379652362859    6.79202427957116
H         2.65011230864002    2.49111746232938    7.24391901858329
C         4.10430720272360    4.95613892470416    3.78482958191539
N         3.82461954830988    4.54870595004014    2.52721190232213
C         4.47083208520801    5.09642534865101    1.50664280802596
H         4.20968112718082    4.75922120639364    0.51192019260003
C         5.42822297456531    6.08203324303565    1.70167430647714
H         5.93086807337536    6.51275324241046    0.85076471650757
C         5.70769488039882    6.51596219755898    2.98758806629300
H         6.43440208436883    7.29472576461357    3.15770644413046
C         5.03024947253476    5.94081888298945    4.05865581064361
H         5.20843419245634    6.25826574198726    5.07390641935666

