58
CSD_code = QAMHUI | q = 0 | S = 0 | Stoichiometry = C27H25Cl2NP2Pt | MND = 4
Pt        4.76337505426768    3.05043036621447   15.04644095933434
P         6.99012098133712    3.53430492839780   14.75978671837764
Cl        2.64942393263779    2.54703827266302   15.70004342827423
N         7.10872482503590    4.12628841248615   16.37169551135212
P         5.54052001612193    3.86409027318213   17.05031814274347
Cl        4.37984241215573    2.22900974067355   12.96743206743278
C         8.36470151188957    4.22080861251612   17.11233744091816
H         8.39158035485342    3.44989595377787   17.89609484493175
H         9.18248082774135    4.01952652878256   16.41356835208490
C         8.54846261867029    5.56829018424333   17.74194585229264
H         7.76524299460179    5.87125776175817   18.42351105591094
C         9.57137139723527    6.36523380001209   17.49676792133922
H        10.35833989961880    6.08526691538898   16.81505468364572
H         9.67082340086885    7.32564206740188   17.97276310680308
C         7.85425104701101    4.73130434603618   13.71491409109037
C         8.25204602065776    5.99215501681717   14.14136951075731
H         8.10911265318401    6.28496086102221   15.17131556504456
C         8.84212820104594    6.86314486498749   13.24182705499628
H         9.16137955771406    7.84029360971169   13.57393818561602
C         9.01694018312256    6.48871626382677   11.91969749002741
H         9.47366543329138    7.17464886808184   11.22189858385383
C         8.59610928519068    5.23962601202735   11.48675532243687
H         8.71945261366101    4.95539891041175   10.45252194798042
C         8.01105348957202    4.36307487113537   12.37923377497681
H         7.66098883246072    3.39027238774115   12.05906521833360
C         8.06013418352338    2.06553055963472   14.71919217131966
C         7.44997693280064    0.85227826279286   15.02092046303548
H         6.37514433358138    0.83478546787023   15.18772739418943
C         8.19827689391361   -0.30832922483959   15.06854307351781
H         7.72279094396182   -1.25046053761991   15.29562293690061
C         9.55965751433285   -0.25966206042365   14.81110517829653
H        10.14737847578705   -1.16494737701680   14.84388381442298
C        10.16814850357424    0.94513515673176   14.49693332572454
H        11.22685074784692    0.97651406997395   14.28509991500426
C         9.42304685811830    2.11016312239077   14.44756260528587
H         9.89394162840066    3.04762058952364   14.18335025784943
C         5.10878109136740    5.43372352614626   17.84376224175534
C         5.38825326659000    6.62242697096080   17.17408842125862
H         5.92504834995131    6.58525015502293   16.23541196969389
C         4.97982467520199    7.82910222154061   17.70809936672648
H         5.20589805955395    8.75127789348426   17.19346096669003
C         4.26739197096863    7.85401613986861   18.89770674409943
H         3.94475350480487    8.79716883477493   19.31271975430683
C         3.95246445654104    6.67014855200971   19.54512561961670
H         3.37930883290768    6.69043792146644   20.46015096114988
C         4.36298054643719    5.45865451604440   19.01818069385714
H         4.10606066382605    4.53074945789082   19.50985489234276
C         5.80512439181582    2.68422270421305   18.40396493078421
C         5.37419810945503    1.37904630987375   18.18854385914100
H         4.83890386787464    1.14931551182233   17.27313674145728
C         5.59765289881090    0.40816460397843   19.14742343292320
H         5.25433408670494   -0.60207799746172   18.98390369436601
C         6.25692590740245    0.73741972923865   20.32113610187828
H         6.43351874727584   -0.01867252648603   21.07163329759879
C         6.68170914535860    2.03835335032331   20.54193361693387
H         7.18760967433483    2.29323848067091   21.46171479361957
C         6.45616164008438    3.01572684744106   19.58898550028101
H         6.76931155289438    4.03429893880905   19.77152443342363

