67
CSD_code = QAMHOD | q = 1 | S = 0 | Stoichiometry = C29H34N2PPd(1+) | MND = 4
Pd        3.20200375667496    4.79899363423113    7.49157044887904
P         4.38447950033477    5.36913342154760    5.66307955880410
N         2.31373846730879    4.01460025185304    9.27134705950881
N         3.74127141184290    6.80506107055763    8.28621328829271
C         2.15890951480330    2.18784416710706    7.71555632212398
C         2.38319334174327    3.13978823005877    6.74416447098415
C         1.88759528118713    2.96505220995949    5.44437064002857
H         2.01588850608940    3.74463919255819    4.70034248860735
C         1.22148613869746    1.81331234421348    5.12054891837459
H         0.82901624196744    1.67284936246456    4.12395352538396
C         1.03641723344057    0.78818772155732    6.06966406666934
C         0.37897379251735   -0.41265961664003    5.72804572399049
H         0.02526856418192   -0.53563235832639    4.71504571511452
C         0.19617269504048   -1.39931923203184    6.65420403057843
H        -0.30712057467340   -2.31554003671179    6.38673291023696
C         0.66790893961292   -1.22731383919959    7.96410053918114
H         0.52508961845017   -2.01697893464820    8.68617042396699
C         1.30655708375507   -0.07547138768354    8.32978496666934
H         1.67258340721288    0.02661834463195    9.33985944427100
C         1.50787913583817    0.96828189770393    7.40002652454157
C         2.63802700497165    2.56840118817165    9.10023316493221
H         2.13119309556683    1.99791342007266    9.89093570052249
C         4.14806832166630    2.31057049064004    9.17292755283553
H         4.67668510965328    3.00108159536256    8.49187013148887
H         4.34305873394366    1.29335106937160    8.83961142833148
H         4.53753852820498    2.41427120224819   10.18276604220493
C         2.89155744262329    4.54526274490072   10.50794736990476
H         2.62264675274192    3.91670640940284   11.36601920310751
H         2.51053159654715    5.55066718662625   10.69242116677356
H         3.97936784274251    4.60091488309904   10.43536576944594
C         0.85822518072001    4.17865567270429    9.32819726404847
H         0.44274563140422    3.67028244626537   10.20751271315044
H         0.39208590809254    3.75981908643880    8.43499512447320
H         0.60264182245248    5.23744535313004    9.39484363329686
C         4.93827142984805    4.23184214697240    4.32681699317646
H         4.08719516171515    4.00394399840532    3.68260552886039
H         5.69311244454628    4.74778193200177    3.72578662468216
C         5.49478775444079    2.95088520809823    4.93965887416133
H         6.36486381249588    3.15622693422844    5.56173853926839
H         5.79288925440022    2.25475384995665    4.16001692112879
H         4.73343028396376    2.47268939024517    5.55788590570387
C         5.99670305385472    6.12215865265840    6.19495220104632
H         6.80566930892141    5.45024506372110    5.89867397165911
H         6.14039489480222    7.08268682720888    5.69306813256058
C         6.02609382206372    6.31108184207414    7.71928167631171
H         5.81539291402028    5.34338191396474    8.20041937212727
H         7.01111392007035    6.65833606839053    8.03438212032669
C         4.96763949557704    7.29751354644226    8.11273420751541
C         5.22982296622692    8.65791341363592    8.22174289769146
H         6.23477529375145    9.02521360819344    8.08529325491281
C         4.18917776602540    9.52529092252425    8.50432720814371
H         4.36787796564567   10.58517462652410    8.59561029417712
C         2.91200851889671    9.00675289787994    8.66112525067538
H         2.07179458544770    9.64754862228302    8.87273440960334
C         2.73680281296157    7.64050396071927    8.54243886901406
H         1.75172897938798    7.19635434041244    8.65991269346752
C         3.46633023141113    6.69444910940978    4.83298870337075
C         2.14552900494463    6.88237249850896    5.23770768166357
H         1.72127382816715    6.22345782365475    6.00668150627216
C         1.37807022963250    7.87702093526730    4.66007172853446
H         0.35431750319012    8.02233358088815    4.97035354966209
C         1.92577530126535    8.68512103118600    3.67589657689870
H         1.32870542592329    9.46194818575739    3.22395275922988
C         3.23581913229035    8.49499531857016    3.26460624996347
H         3.65469058782183    9.12160724212026    2.49210812146412
C         4.00853147115954    7.50143726074602    3.83873632661601
H         5.02792581778087    7.35098805571592    3.51186351938520

