54
CSD_code = QAMHIX | q = 0 | S = 0 | Stoichiometry = C23H26Cl2P2Pd | MND = 4
Pd        7.70416914753655    2.23478508791659    1.92538318301574
C         8.46105624725758    2.04736625749441    5.55917494144616
C         9.29550896206935    2.68811200488344    6.46833855482824
H         9.56409449255572    3.72607812374822    6.33704256290826
C         9.78831354952604    1.98908143925939    7.55666211387243
H        10.43336125434188    2.48871884604352    8.26491022359044
C         9.46149207142484    0.65573694171598    7.73793752207135
H         9.85265766966490    0.11749470626405    8.58861139817035
C         8.64112290888782    0.01176931624312    6.82477005888816
H         8.39458970988941   -1.03048464705780    6.95890684528734
C         8.14099514722338    0.70192248474463    5.73747084029595
H         7.52205553569025    0.20791106774544    4.99950483813601
C         5.96697779055364    2.90231859142221    4.53869736338727
C         5.55583111546623    3.30822857878295    5.80502533725446
H         6.29472946667470    3.56151148718675    6.55370699598178
C         4.20799910451633    3.36943674040320    6.10653973730847
H         3.89018083003707    3.68199617510356    7.09046771639511
C         3.26571680166697    3.02410919723934    5.15035026517386
H         2.21398843909624    3.07113727213543    5.39079298939863
C         3.67010851898653    2.60707116760380    3.89245583699753
H         2.93423415726898    2.32442947579747    3.15451874594286
C         5.01784145679374    2.54276847776522    3.58397378310158
H         5.34263362144670    2.17915504545476    2.59759058645197
C         8.21559881148295    4.62552760816854    4.21039643704206
H         7.82764255187708    5.06269992645533    5.13594938067834
H         9.30964228099564    4.67599119603216    4.23463151833503
C         7.68601392413326    5.38095318125870    2.99148582126918
H         6.58552931863195    5.38988494266312    3.03738873675709
C         8.19277229587909    6.81673419895415    2.92056137589264
H         7.85228031165236    7.38272909477663    3.78609102648597
H         7.81570388234688    7.30478354134213    2.02369109672945
H         9.28017815848389    6.84691699455532    2.90087457084122
C         9.88585032900044    4.59629130144692    1.17702088003664
H        10.08766861041073    5.45222424615762    0.52913303241631
H        10.36494480082929    4.77032040867286    2.14605224145720
C        10.42288600330122    3.30437503287130    0.55709545648307
H        10.20669812699254    2.44451821468913    1.21840426937084
H        11.49976607330522    3.36333026334526    0.40820720718542
H         9.94274242610601    3.11950572495811   -0.40473841225087
C         7.14874824547825    5.25260001122779    0.17210539696693
C         7.64550468922820    6.25207873996848   -0.65445628369305
H         8.67188085326554    6.57952134465194   -0.57267525396679
C         6.81855500625759    6.83273675069649   -1.60078684800004
H         7.20713981334657    7.60551043925662   -2.24781910435106
C         5.50193215820641    6.42274344316771   -1.72570639736081
H         4.86638860046071    6.87460089887411   -2.47258026283282
C         5.00257365588789    5.42512766363978   -0.90261518456152
H         3.97945525283385    5.09731701804245   -1.00857854493941
C         5.82368064173648    4.84059964555590    0.04072752230108
H         5.46138963970233    4.03332650494594    0.67136578096375
Cl        7.51472895256257    0.02990898724617    2.42798989986062
Cl        7.34514776715223    1.84878745303638   -0.28282974838668
P         7.73540622133746    2.83730402782778    4.09700479984109
P         8.07599259851964    4.38329735763688    1.46117714952596

