67
CSD_code = QAMJAR | q = 1 | S = 0 | Stoichiometry = C29H34N2PPd(1+) | MND = 4
Pd        4.36200364881243   10.95365259532855   21.41369649823741
C         6.02275634564166   10.79088909176470   20.31024423399013
C         6.44611333712954   11.62998489999954   19.26986384650815
H         5.88066067999980   12.51901759928734   19.01673422892996
C         7.58110709254782   11.32806637317197   18.56705548067734
H         7.90968142991616   11.97088703771397   17.76347282757411
C         8.34829021516680   10.18772867786282   18.87677980827900
C         9.53787323351075    9.89413079636556   18.17700026648407
H         9.85349305828756   10.56755330017129   17.39385419131272
C        10.27595291407747    8.78680377113150   18.48315533261653
H        11.18542275503428    8.56785047105047   17.94524283683187
C         9.85419922185856    7.92500634193527   19.50645904858549
H        10.44882650156740    7.05627638574797   19.74567903142792
C         8.70516043162800    8.17817951251751   20.20221365370206
H         8.41111699516543    7.50593375610059   20.99361352755360
C         7.91477769449608    9.31179913531729   19.91002871823643
C         6.71607418144056    9.63358678761715   20.59661701237566
C         6.11069066303674    8.76875214056843   21.68189587163025
H         6.42198546493398    7.71769266071210   21.60293211533160
C         6.55499441479442    9.33443077698039   23.03586588745075
H         6.10259493655498   10.33074761479070   23.18206985918248
H         7.63650618973682    9.45218272564749   23.02670425262364
H         6.29365947741968    8.68285081724765   23.86610216109199
C         4.24915075510084    8.18495158241000   20.26119195240774
H         4.46749640584438    7.11038536968034   20.30349996774302
H         4.79564331969393    8.61623742663851   19.42090870200190
H         3.17878983892180    8.30990071281670   20.08502178237993
C         3.94178599847212    8.17644027423734   22.61965494855385
H         2.87696338086530    8.09691523220607   22.39710007806472
H         4.05543278670667    8.74051699083580   23.54699988500807
H         4.33333028238433    7.16246643851559   22.76876027612459
C         1.33824570175186   10.52513467125534   21.88000736331133
H         1.52419418617761    9.87509117306793   21.02934684944918
C         0.04691348122754   10.77757937123138   22.30669901068188
H        -0.79167784842721   10.32402002631929   21.80423303181903
C        -0.13693608414500   11.62234056242854   23.39190369304110
H        -1.12775020275379   11.83841337683736   23.75963870381147
C         0.97501474387672   12.19153267856094   23.98910392206058
H         0.86994990942673   12.86297238170481   24.82665243287220
C         2.23930724939289   11.88994222100145   23.49681507557227
C         3.48031692046506   12.53301360413588   24.04183531732964
H         4.30449099554814   11.80316370808833   24.01153257310432
H         3.32486581673758   12.84929134757440   25.07414142392748
C         3.86839609108856   13.74266294701444   23.17451499791773
H         4.76649284247658   14.20958243348964   23.58667554403902
H         3.06647723010086   14.48585989687875   23.16473856806856
C         2.78551993822421   13.71158645799552   20.44712633598710
H         1.89193257251939   13.47421320620514   21.03439136496959
H         2.78870962731709   14.78808518426148   20.26339267527540
C         2.78283115245513   12.91479907684428   19.14310015484197
H         3.57567489273779   13.25672179978212   18.48038706055945
H         1.83395779691389   13.02138147381706   18.62234158878646
H         2.95284035309422   11.84518256994560   19.35576906045750
C         5.65906770723856   14.24820318120355   21.01732212149616
C         6.87609692502252   13.82929136796652   21.55461393848985
H         6.90252581336657   12.91790143789670   22.14535586376753
C         8.02797179611239   14.55011963069562   21.31394840332083
H         8.96890308770653   14.22254070356585   21.72834782453722
C         7.97276686119982   15.69125122551079   20.52692318289137
H         8.87179821975777   16.25512064893729   20.33222629541990
C         6.76815332142277   16.10465463030820   19.98418903725849
H         6.72873746816742   16.99033570345375   19.36856244940735
C         5.60822168337184   15.38660593824081   20.22480540661704
H         4.67778071849483   15.71816975085195   19.78881086735904
N         4.63287152787862    8.84360100643196   21.51440343990027
N         2.40746596858161   11.05526845650258   22.46921659537597
P         4.24573788474339   13.19484885361634   21.43990954335891

