90
CSD_code = QAMKOE | q = 0 | S = 0 | Stoichiometry = C38H35N7O7P2Zn | MND = 5
Zn       14.24470686466750    3.07658064072103    6.22451675260589
N        16.56387733428324    3.95468258473872    6.32189891079367
N        15.26318255611828    4.35810218896475    9.76040219735883
H        15.89105557487849    3.98432902175048   10.45354681693009
N        14.33710357430051    4.44620765224449    7.74772013051286
N        16.87433959547373    0.50934909948485    5.32172881298707
H        17.70943661175599    0.17469751025225    5.77329355000389
N        15.27405494072314    1.92763496733264    4.73355493617934
N        15.31694842396568    6.15428797243982    3.66330449573651
H        16.01255796200935    6.82823196501020    3.38794773312117
N        14.30215352560487    4.58249070874677    4.83719963703329
O        12.50314907803800    2.55819571253494    6.21521500069108
O        10.53837429166208    2.25749511331951    7.82205674022451
O        11.92203423719095    0.22230249843123    7.04393185097772
O        12.88298486908246    1.79092683781754    8.63079166917877
O        15.06374087207118    1.76402328039673    7.33907305499508
O        14.33117238067494   -0.32177414124600    8.30940283129380
O        15.07082366860613    1.59300356403019    9.87870667408114
P        11.86185177769472    1.81868664435101    7.38335255114042
P        14.41332048474856    1.26515050366589    8.60221264135808
C        16.74487251085630    3.95118514556560    7.76140329179361
H        17.52126653827818    4.66625755471140    8.08745762729643
H        17.03067328791224    2.94678362803310    8.07951058908704
C        15.44105250543554    4.25136955117291    8.42631205357254
C        13.91230221914417    4.55612244217545    9.96640958150284
C        13.14651213769198    4.67292842662818   11.11294683497311
H        13.58423138559279    4.58179143164079   12.09492709309901
C        11.79173617789268    4.87785876513524   10.93472309349635
H        11.15261175977933    4.95293487709760   11.80199775280626
C        11.22345644160035    4.97847299123909    9.66394039832821
H        10.15819876817296    5.12225187826608    9.57667105667680
C        11.98233442011230    4.86727042193038    8.51729911469280
H        11.54632344068230    4.91800038829204    7.53423720887142
C        13.34143180357382    4.64081654531376    8.68205678387696
C        17.34071801454131    2.97715791049817    5.57543895374788
H        18.20886726986021    2.63362416691130    6.15170333148469
H        17.70781644489051    3.44025103432156    4.65107622946124
C        16.48999180329587    1.80209571671167    5.20403438132476
C        15.79668283179803   -0.26763467165003    4.95711254423954
C        15.58710411791003   -1.63617497227899    4.93447371581477
H        16.34833540624450   -2.33083476560178    5.25674806028761
C        14.34833239173481   -2.06691155386707    4.50116000671489
H        14.13305379498981   -3.12506112994061    4.48258103056884
C        13.35944832579323   -1.16970956988276    4.09205829397354
H        12.40612085761368   -1.55724507901437    3.76657607563640
C        13.56353083001587    0.19415904226855    4.11567663180042
H        12.79669236692074    0.89251891006834    3.82419754812804
C        14.79688120375160    0.64582173985812    4.56688218550397
C        16.48740250466848    5.27192790049514    5.72621225548982
H        17.43421621506715    5.57401236338556    5.24701198428605
H        16.26017701224874    5.99383205704309    6.51696469194794
C        15.36919571523661    5.32386981158897    4.73720920324708
C        14.11361960287720    5.92372336204096    3.02945873083233
C        13.51684522315721    6.46657254837823    1.90231165229809
H        13.99785693517493    7.23672450357403    1.31898197184113
C        12.27137678599273    5.97412075398690    1.56345822608848
H        11.76996653352878    6.36956143259628    0.69303620913575
C        11.63948259013628    4.98089156053547    2.31766955327023
H        10.66390524588031    4.63846494466194    2.00828525742790
C        12.22840696915353    4.43643403286971    3.43981835972877
H        11.76345865130726    3.67894150017181    4.04859025059822
C        13.48292067740795    4.91805967060113    3.79080928244531
C        11.01930390312685   -0.34783425752924    6.20397435977661
C        10.85505806737040   -1.72797544717884    6.26918435931354
H        11.41768631620430   -2.28384641107542    7.00306762888173
C         9.98088750587065   -2.36121164362615    5.40537153982125
H         9.86175576206973   -3.43407385837286    5.46659041543147
C         9.25121688318943   -1.64271901546818    4.46733092828044
C         9.41611983437189   -0.26339999382022    4.42189444373829
H         8.84922350020375    0.31433966896475    3.70513018035596
C        10.28835376642639    0.38265950927722    5.27771420281800
H        10.41183316496619    1.45340551762717    5.25732610799320
C         8.31464440097560   -2.32951095650930    3.51637366397497
H         7.36204720249427   -1.80524980341466    3.47068945433398
H         8.73640502905863   -2.34241385876169    2.51073082828784
H         8.13398595772463   -3.35634496287871    3.82407736582712
C        13.59697505179870   -1.21487100061895    9.02544495155792
C        13.55648051799628   -2.52232287712903    8.55181005684637
H        14.09265247013349   -2.76366863443944    7.64590804163647
C        12.82610099041780   -3.48154197130126    9.22932216217706
H        12.79774462248514   -4.49348936064101    8.84846097992230
C        12.12356622617258   -3.16181010715260   10.38314445624137
C        12.17650552890932   -1.85195978704591   10.84503506721217
H        11.63445616602382   -1.58413660630277   11.74082483775206
C        12.90518288959228   -0.88326605355650   10.18064582125974
H        12.94517645737034    0.13302210760553   10.53808236964730
C        11.33666802818113   -4.20048418511838   11.12738318983230
H        10.35474259569117   -3.81658120879040   11.39692582096885
H        11.20926215335679   -5.09701439056243   10.52556101178783
H        11.85158666634984   -4.47644200469568   12.04810966976202

