74
CSD_code = QAMLAR | q = 0 | S = 0 | Stoichiometry = C30H29N5O7P2Zn | MND = 5
Zn        3.90427147050110   11.32253492533835    0.73443951446965
N         3.78097532717367   12.24823786147642   -1.05583046833021
C         3.65911531236093   11.44159795910434   -2.07874391571553
N         4.12242443604197   11.99320917129705   -3.22471206052707
H         4.17978138814631   11.54426677664564   -4.12424333446429
C         4.61118823640657   13.24458320052538   -2.90802121529878
C         5.20659519893189   14.24347955265945   -3.66130222996921
H         5.37723931595538   14.12918173557325   -4.72083181121784
C         5.57838300136779   15.38950787018300   -2.98623887005711
H         6.04876728936681   16.19184810148283   -3.53352024096666
C         5.37157294114782   15.53542946855779   -1.61250893423114
H         5.69579777346287   16.44503647681116   -1.13209360564483
C         4.77263678270359   14.54819605845704   -0.85849773289230
H         4.62302614299922   14.63343721474961    0.20479253685786
C         4.38878988768842   13.39140314433270   -1.52448329787079
C         3.10690844549792   10.05877576897937   -1.95153772225862
H         2.38454324502246    9.85168603579367   -2.75845671887472
H         3.94762249718721    9.36573391448138   -2.04550719338313
N         2.54245906540400    9.89674502639352   -0.62954181191107
H         2.71123534310121    8.97491506529236   -0.24610965425567
C         1.17427485221371   10.31775914824585   -0.42846535847183
H         0.44263638714481    9.50550789987563   -0.56826691588609
H         0.94286960349750   11.11365854390654   -1.14601966099467
C         1.05930504924825   10.88394151493561    0.94815195904727
N        -0.09557689493389   11.04331790088305    1.63115942609596
H        -1.01620964384573   10.77221730969086    1.32681050932963
C         0.22000245247650   11.63850447758617    2.83487860577295
C        -0.55444569599449   12.02645057537886    3.91691693055066
H        -1.62463964511902   11.88652905351863    3.92666275761648
C         0.11453768543626   12.59813522911630    4.98148198024323
H        -0.44733852225509   12.91349141201213    5.84769698171505
C         1.50074326218667   12.77496300016571    4.96591181959396
H         1.97865837274671   13.22206079392445    5.82336895638844
C         2.27861476745959   12.39079326042781    3.89247951032829
H         3.35021476096459   12.51383204071086    3.88830728951445
C         1.61909787809671   11.81278489649980    2.81314275009259
N         2.09495936974601   11.32515525834426    1.61458029710242
O         4.82233799214328   12.53099442653848    1.69111976458722
P         5.87550942564204   12.11868585506601    2.71731989143641
O         7.16834566771824   13.02984518735862    2.42342974405761
C         7.56173643251885   13.42706888863875    1.17517711879622
C         7.50630062651761   12.60325841154565    0.06010364916613
H         7.14855366632708   11.59106434907176    0.15266785453553
C         7.94685381085668   13.07265567119313   -1.16428489110560
H         7.90681751744913   12.41654931909287   -2.02224847482147
C         8.45217576405990   14.35755882774451   -1.30775957771529
C         8.50283543544773   15.17234623697565   -0.18400839196904
H         8.89631796697728   16.17565474912198   -0.26958330204698
C         8.06037549389495   14.71936025147047    1.04403612589278
H         8.09797861900131   15.35166849508133    1.91764717467423
C         8.96893325288050   14.83824013992339   -2.63165932982092
H         8.40786050704944   14.39364696289734   -3.45046645131161
H        10.01564915801527   14.55495874165609   -2.74729396625573
H         8.90399422951978   15.92149572930431   -2.70387574294009
O         5.52137615545734   12.20749774099527    4.13294644281626
O         6.37463567656493   10.61673530433758    2.39296502506031
P         6.18151971764242    9.53142427410285    1.21747274140932
O         7.44806951462655    9.07344186666046    0.66564206828295
O         5.46976912429764    8.31389642045698    2.03137357623116
C         4.17113400248893    8.40071549026869    2.42883630156398
C         3.79253958986145    9.13710566437628    3.54695017735473
H         4.53444182122453    9.70649042790016    4.08538883102865
C         2.47668523348346    9.10873742642632    3.97451919816602
H         2.19989963936290    9.65994592130654    4.86134199122742
C         1.50905764774825    8.37912478034555    3.29459223842399
C         1.89020028799298    7.67471705359592    2.15984764595434
H         1.15328233573088    7.09605783647208    1.61741279241870
C         3.20553011029993    7.67954043394319    1.72977314465876
H         3.51726336398179    7.09585494984504    0.87457676455008
C         0.09725789688008    8.31673899929489    3.80001717763749
H        -0.60687174439024    8.16391954055066    2.98383501030387
H        -0.16399076536540    9.22734816138632    4.33414331047660
H        -0.01002811735620    7.48042683892156    4.49135283332095
O         5.10811580389290   10.04762098277465    0.26344246244127

