69
CSD_code = QAMLAS | q = 1 | S = 0 | Stoichiometry = C30H36OOsP(1+) | MND = 8
Os        1.56386396763399    2.48345278511138    9.38528361924575
P         1.85232975268543    1.68457332814496    7.13379116803100
O        -0.23230743555463    4.78205614627347    8.69590112434000
C         0.07435269965718    1.23495740356227    9.82234220644707
C         0.28914871077279    0.13623752430420   10.69817799773911
C        -0.87067375348572   -0.57656843571936   10.92531359416895
C        -0.99242780445234   -1.77807192635682   11.71025830038004
C        -0.21736157366561   -1.94855645678644   12.86543839922989
C        -0.33592254045282   -3.09204369268149   13.62740738778132
C        -1.21016871168490   -4.09868762726888   13.24274668578637
C        -1.96499771627873   -3.95455507024404   12.08790230395675
C        -1.86577802709833   -2.80546567827671   11.32998851649751
C        -1.94832362824851    0.10445885287235   10.20699980744300
C        -3.30723786485377   -0.11352523235089   10.18747817751660
C        -4.10996271564448    0.73892327877864    9.42425654540706
C        -3.55264887812886    1.78957082203501    8.72656640264977
C        -2.17913489374814    2.04017045348461    8.78217270558961
C        -1.37102815083594    1.20384116995994    9.52547076948119
C         0.37590003859926    3.82637264301841    8.87979197557855
C         3.08872095313681    0.27994272571828    7.02691961968064
C         2.77434964257027   -0.85624818833722    7.99893422811164
C         3.31532151163537   -0.26236074400234    5.61873984860473
C         0.24655358864649    1.19667093810817    6.29112482422297
C        -0.22181135512374   -0.17817306963285    6.76315038631714
C         0.22749354851668    1.26481965810797    4.76484238841236
C         2.55311712062837    2.96172793855867    5.96279302916731
C         4.01451030747466    3.31551262707156    6.21781929397107
C         1.70169480426592    4.22811861162251    6.00743714752972
C         3.32955630052108    1.66867802217523   10.66762020823943
C         3.88611173657599    2.57758476613260    9.72395424599427
C         3.35510170300690    3.85723135249950    9.97049354940980
C         2.44306024437693    3.74657196535260   11.05131336632936
C         2.46089212209073    2.39264704803632   11.50316010658031
H         1.23945391351479   -0.16788738621836   11.10258161019772
H         0.44426342685861   -1.15576564519184   13.18047426243544
H         0.25161793245038   -3.20277037503134   14.52604382113412
H        -1.29919359833190   -4.99361028693219   13.83882996363464
H        -2.63264079097011   -4.74426159804270   11.77870157717310
H        -2.42428914786329   -2.71479198052223   10.41111822224957
H        -3.75763673446365   -0.90958799572266   10.75963375694528
H        -5.17557690457207    0.57370699048884    9.39067140804974
H        -4.18416111779650    2.44114323969045    8.14288099082513
H        -1.77412791048981    2.88807647167735    8.25430654512480
H         4.01936665452864    0.75422961086272    7.36458338711359
H         2.04412733826262   -1.54343017269894    7.58406003095938
H         2.38230424884422   -0.47273219466905    8.93941590699477
H         3.68063553914997   -1.42212202198080    8.20656900474820
H         4.14603963877785   -0.96594382064201    5.64283906543663
H         3.56619177708931    0.52273280874482    4.91034010397772
H         2.44223766644970   -0.79918885623496    5.25953289436375
H        -0.45978729614822    1.94006072337135    6.68156016056849
H        -1.28775248633040   -0.28493259859334    6.57497324832160
H        -0.05554643138193   -0.30009579473487    7.83052457524841
H         0.29221352366239   -0.96976857925957    6.22550173698922
H         0.98991746106506    0.63594655565088    4.31565302469626
H         0.34285327556345    2.27920929898978    4.39578356167536
H        -0.74045699170800    0.90305548454194    4.42296581038570
H         2.47595815503566    2.51259580331135    4.96710249629626
H         4.33220022280257    4.05270614915940    5.48268184754173
H         4.67188578822038    2.45491589093393    6.12259054594883
H         4.14353371375384    3.75844646809900    7.20163191994420
H         1.87322298751554    4.76667696737413    6.93726340268526
H         0.63954863277048    4.00790316990352    5.93060103015673
H         1.97419258826197    4.88638077982567    5.18512433140931
H         3.67847520192523    0.66063432607658   10.83381217592811
H         4.70957393903779    2.35215686975532    9.06321158641966
H         3.67687077340242    4.78127600383404    9.51594425922006
H         1.98252379102966    4.57302222113574   11.57349144645382
H         1.98406751641924    2.03244953372571   12.40241035885894

