72
CSD_code = QAMMIA | q = 0 | S = 0 | Stoichiometry = C32H24Cl2N4O7P2Zn | MND = 6
Zn        9.88771025433602    5.60495285144599    7.86409189828325
N        10.00953883351555    4.21169128617964    6.27471903665598
C         9.16105814699844    3.22348693846101    6.04873644266882
H         8.27317899306482    3.22238921903038    6.66481782664634
C         9.39166445887232    2.24907325112851    5.08849078867118
H         8.67423555800476    1.45940700302302    4.93281163939495
C        10.55261482263731    2.32196834911303    4.33622353244619
H        10.76270766259962    1.59313641768718    3.56834985340508
C        11.45216582849647    3.34294577488885    4.59401884966898
H        12.36099712263082    3.42300284346731    4.01995430792442
C        11.15114767941197    4.27076121226698    5.58794993039678
C        12.03955631395408    5.38455947477342    5.94972598750550
C        13.41204031890686    5.35041143572903    5.71709954098389
H        13.86984067017629    4.48506401017365    5.26631765379566
C        14.18451386015205    6.42628553312982    6.11848159108039
H        15.25408237901829    6.41762618975381    5.96949928890286
C        13.56094775977921    7.50814749741579    6.71872848363214
H        14.12553153316137    8.36876342655645    7.04060894655748
C        12.19010680421109    7.45042697262949    6.91746908196421
H        11.65782470580478    8.26418612013375    7.38857714719756
N        11.45015861801010    6.41843139798145    6.55293551668009
N         8.36326243352819    6.84839443878394    6.96744154406578
C         7.74370682061930    6.61667099489420    5.82503332390021
H         8.33710630881621    6.13850597449969    5.05837369002437
C         6.42032997472455    6.95846420181279    5.59692006636862
H         5.95183313726446    6.74327030226169    4.64991396047493
C         5.71944660487236    7.57200268183617    6.62269381242763
H         4.68292128612472    7.84697729658528    6.49580154658768
C         6.36895995298946    7.82754029387126    7.81722267749144
H         5.83849991632895    8.30723876810570    8.62297737876210
C         7.70197202931682    7.44503705934655    7.96283879306356
C         8.47685660883868    7.66105762111651    9.19492231876541
C         7.95114099376960    8.22915967724674   10.35104285266764
H         6.91744773446395    8.52904257520209   10.40552858742269
C         8.76765040998537    8.37082185807491   11.46183963624268
H         8.36808303267050    8.77092268438973   12.38189090656765
C        10.09313534356201    7.98626588788575   11.37245153406764
H        10.76404825779606    8.07657136994260   12.21048743953772
C        10.54029715434635    7.43343561975843   10.18099739060531
H        11.55936886791234    7.09539958632562   10.07214834990536
N         9.75224470834444    7.26134861032852    9.13402997250912
O        11.37846805748255    4.88110268609459    8.73012861622303
P        11.28405916955594    4.17314971166604   10.06794208402702
O        12.33698203434868    2.93735723239950    9.96452897599932
C        12.46527877470053    2.28776433321872    8.77851774089240
C        13.61588686078476    2.48823538443886    8.02180094279827
H        14.36256231933995    3.17586657110689    8.38669649953975
C        13.79268680216373    1.81916187520191    6.82520690633010
H        14.68978891136511    1.96286444593995    6.24218911335306
C        12.80846384183160    0.95172673585275    6.38318832796194
C        11.65500601304994    0.74494371487642    7.12115978686433
H        10.89862678087885    0.06228244923071    6.76558580064090
C        11.48456348278277    1.41454898286110    8.31857954324546
H        10.59154976050508    1.27594697731487    8.90721569624628
Cl       13.02353233078038    0.11967864630154    4.88079188979737
O        11.54022532510825    4.92555103985080   11.29568394749302
P         8.43474449735884    4.03308419202574    9.93387071743673
O         8.54902072482999    5.30130307359337   10.95829797145090
C         8.16131259479693    5.15583799752403   12.26353680055303
C         6.81596111246328    5.03084651834775   12.58203170772036
H         6.09564654459385    4.96594321063426   11.78263748804738
C         6.42249266078014    4.95973143089538   13.90647501848626
H         5.37979415136246    4.85448164128914   14.16311208253493
C         7.38170709834165    5.01959954727826   14.90343967069995
C         8.72804941434919    5.13057226622937   14.59487243494354
H         9.46412443149841    5.15618741887066   15.38333309465564
C         9.11877733778523    5.19511337525910   13.27014358884514
H        10.15909000730021    5.25086122259441   12.98910998195236
Cl        6.89026870980146    4.94847760338423   16.56039741078220
O         8.39709488559246    4.69530523229920    8.57871496854848
O         9.89414704938037    3.33946122974459   10.09399644462779
O         7.39285441506813    3.07826854640507   10.30065162138700

