76
CSD_code = QAMMEW | q = 0 | S = 0 | Stoichiometry = C36H24Cl2N4O7P2Zn | MND = 6
Zn       12.16170031227223    0.70605485315803   12.59937626190466
N        11.91010982941328    1.94207218787961   14.31254030429099
C        12.62908760094425    2.99488451686324   14.62917216314458
H        13.63202296244090    3.01943909954599   14.22775629931435
C        12.13757290584365    4.03312041203153   15.42829060774555
H        12.77491186540790    4.86998342232702   15.66638640518674
C        10.84523516731874    3.97141128301836   15.88930143596851
H        10.42795815438086    4.75669015478487   16.50220107958817
C        10.04970666392764    2.86655804096599   15.54103788292269
C         8.68742905339188    2.73023753141681   15.93518197893824
H         8.25024831098883    3.51740164430377   16.53112774031419
C         7.95785921268156    1.65408934354772   15.55505295252415
H         6.92066908014066    1.55935410488985   15.84181548198812
C         8.53339606374924    0.61518749855575   14.76692845953507
C         7.81736142852632   -0.51815148498025   14.34749588097656
H         6.77639621174329   -0.62363595718250   14.61785028697509
C         8.45976525737235   -1.47258913802145   13.59678930241965
H         7.94076012183367   -2.35456229260052   13.25549867962825
C         9.80750409687652   -1.28685028403349   13.27076717369628
H        10.34219961332686   -2.02346307478271   12.68879248076269
N        10.49767775566770   -0.23509191979153   13.64351064217279
C         9.88575759737057    0.70903807236705   14.37136457189438
C        10.64581174366698    1.86393850666944   14.74817039872228
N        13.69739754597696   -0.59112106936531   13.42841747658089
C        14.37171552259190   -0.44277316443004   14.54424958969905
H        13.81201101504614   -0.07168031417457   15.39132514064037
C        15.73441428552438   -0.73478119347725   14.66095560449429
H        16.23743979510663   -0.58552644202434   15.60360329481464
C        16.41485791575603   -1.19307358558422   13.55908891388121
H        17.47150650251664   -1.41475708227139   13.60475838888186
C        15.71976832003901   -1.36636615477899   12.35098768456315
C        16.33804799931911   -1.81619339078350   11.14888339757387
H        17.39488035346841   -2.03888535056729   11.17249077005014
C        15.62688890171029   -1.94425765262917   10.00227001328767
H        16.10268085910047   -2.26889296538755    9.08849827618099
C        14.23833064851465   -1.63153706465361    9.96015247250853
C        13.46159755500418   -1.70571782108542    8.79061839121979
H        13.92217865636169   -2.01573095456639    7.86354434707390
C        12.13313171870037   -1.36705427415323    8.84983048060299
H        11.50577769667703   -1.40241582278088    7.97427969087240
C        11.59470844981867   -0.91705835471402   10.06054889458792
H        10.55805840835571   -0.62557636536995   10.12794798908682
N        12.30796342648641   -0.80950378443056   11.15959296853653
C        13.60004819571997   -1.17188249285986   11.12911081991104
C        14.34532051978267   -1.04532533287220   12.34471840443323
P        13.82907664401615    2.46161156741470   10.83537352582593
O        13.69691049721964    1.72698956421130   12.14435850824201
O        13.81424820296290    1.25056612621923    9.73699870048933
O        12.40492223545981    3.18833825919919   10.54771590335874
O        14.92201905008085    3.40925533598368   10.63767295827828
C         9.64880130319333    4.19912714993623   11.52498415783280
C        10.52545079864090    5.10820762525587   12.10796151796500
H        11.48869032789442    5.27010674205487   11.65034110113871
C        10.16169444814221    5.78555155218467   13.25736563738140
H        10.83513713072791    6.49973155486259   13.70580473616264
C         8.92094606288803    5.54692353300849   13.82413113082120
C         8.04308166007064    4.63356578414031   13.26607308140073
H         7.08194178493958    4.45457557267860   13.72281209877302
C         8.41257743141823    3.95957233283422   12.11769133502246
H         7.75114502959316    3.23919954810838   11.66300770795874
P        11.03147068870035    2.33971165210565   10.39085729944175
O        10.77958375740163    1.61575587485901   11.69867759689400
O        10.94531491225289    1.60647250545887    9.12670492560869
O         9.95774367270270    3.55894215970018   10.36787738508081
C        14.39167667552233    1.41560543436399    8.50994670977047
C        13.58721664553734    1.48019893620398    7.37817631076904
H        12.51613809177874    1.48543777013992    7.51061213513660
C        14.16658437087234    1.55435271974612    6.12513362121930
H        13.55135444375067    1.60786730672187    5.24034247303976
C        15.54787845344924    1.56990748081953    6.01349656531447
C        16.35688645590092    1.52578025317356    7.13671296140599
H        17.43040545348322    1.55656746714970    7.03271686721465
C        15.77446753737757    1.44653133109373    8.38896498653581
H        16.37532393374364    1.42747233959620    9.28409696266698
Cl       16.27522254823812    1.64868064054616    4.44601171372363
Cl        8.45722445116373    6.39808799223901   15.25819790542442

