79
CSD_code = QAMPAY | q = 0 | S = 0 | Stoichiometry = C36H40O2Zr | MND = 12
Zr        1.10457988464708    4.49848835887227    3.81451250511607
O         1.48753696297297    6.27400327994757    4.25642802433609
O         1.92661054495327    3.59653695769026    2.37417176852420
C         3.50331459748242    5.84456956139528    1.51808978272560
H         3.12677570463918    6.33159201724658    0.63730058432922
C         4.02082221127764    4.44621696322029    1.49708185780117
H         4.73001663950556    4.24895102872265    0.69224821508143
C         4.59239999375280    4.29909352596227    2.86424752281495
H         5.15542290646775    3.44060253554679    3.18507319146042
C         4.26191323163411    5.36782495097839    3.60385778287224
H         4.57731575733241    5.54546484892363    4.61692814321359
C         3.57667926184521    6.35433398333947    2.76335063471324
C         3.15318244846559    7.73770818073998    3.22757889871384
C         4.36864867047258    8.54036801518155    3.66629472515735
C         5.66392444334616    8.08334887839150    3.45525166292095
H         5.83210816942348    7.13568325256006    2.96838930785653
C         6.76362564960941    8.82810443557574    3.84862127854392
H         7.75536118596268    8.43541113868720    3.67259428538131
C         6.61468121379818   10.06496011363325    4.45481622926735
C         5.32231030501717   10.54444227635818    4.63415146503313
H         5.17401710043987   11.51761912522138    5.08126945006825
C         4.22655604854803    9.80219559323522    4.24250378389263
H         3.24436450090466   10.22775036753345    4.37078264222409
C         7.79532137975713   10.87494842563191    4.89590975553257
H         8.72698698229382   10.39120966402364    4.61357393747216
H         7.78411164225728   11.00033602277706    5.97842536232949
H         7.76650614056172   11.86701129113745    4.44713891000101
C         2.46673257294929    8.42149615701884    2.05400887775701
C         2.93321265001520    9.57987801992780    1.45197799130784
H         3.83092343119581   10.06065822253025    1.80839241722878
C         2.26228424431000   10.13778688903559    0.37430378522152
H         2.64852733686591   11.04204824825011   -0.07471024112554
C         1.11241996091547    9.55850687822997   -0.13681054040098
C         0.65502411944670    8.38457454932845    0.45489208886330
H        -0.23586310600709    7.90851970961023    0.06842509085598
C         1.32405600456868    7.82353489321425    1.52302173211085
H         0.97653797014276    6.89775607009775    1.97063760674093
C         0.37979185188585   10.15750937775813   -1.29886392976851
H         0.37279762844505    9.46545048412261   -2.14049949566125
H         0.84749665390847   11.08550336426192   -1.61766820600220
H        -0.65571673320795   10.36288393136419   -1.03045704704254
C         2.10908019105673    7.50549114569414    4.42748791632591
C         0.99980190946384    8.58044469934774    4.49000521074352
H         0.39934266902133    8.58231942117013    3.58553058393244
H         1.40014992674759    9.57755035862984    4.63984489211160
H         0.35311516740527    8.33311549915224    5.33108973264264
C         2.82708106816657    7.53641627671650    5.79814625263575
H         2.18647196544592    7.03059380377294    6.51943803689845
H         2.98904334572682    8.55757721549469    6.13070385632011
H         3.78913150771198    7.03602954419530    5.77050449495290
C         2.79992154063818    3.44378230287641    1.32817810877409
C         2.10513386799881    3.73774043828569   -0.01796760403888
H         1.36282836006983    2.96619268475049   -0.21075646779597
H         2.82389534060506    3.74684152846094   -0.83351461199139
H         1.59698424856377    4.69773817292398    0.02923670407353
C         3.34262641809983    2.00049090770507    1.29398264327798
H         3.81277680086451    1.74867955151677    2.24024623229978
H         4.06006088439714    1.87199140689475    0.48760797202184
H         2.50912506885628    1.31819022279374    1.14021580799418
C         1.14273349371159    4.14970971610040    6.41855847615362
H         0.79553015944013    4.86592407014704    7.15300812519308
C         2.46246445553332    4.03424799121538    5.93678956169464
H         3.30575294533083    4.61430231988900    6.28329898467669
C         2.52936200992289    2.88268380483012    5.12155643186756
H         3.43261545104022    2.44412707230249    4.71807173945269
C         1.24878564061768    2.28983829874346    5.10186020835059
H         1.00196422536939    1.33666641566696    4.64990091148813
C         0.40296451438416    3.06550300984302    5.91838901271359
H        -0.60064790115076    2.80125369725022    6.22364932191828
C        -1.05891547309072    5.69852548576836    3.14637245896768
H        -1.18885883008113    6.76928550475987    3.24123662801136
C        -0.71871129682179    5.00180112260714    1.96595157309693
H        -0.54779099795854    5.44329609391916    0.99245629419474
C        -0.86898407501697    3.62473657192399    2.21525715209666
H        -0.77446315471517    2.83475729878569    1.48299481861306
C        -1.27565871730757    3.46301394603765    3.54642998241552
H        -1.59644557937689    2.52869156285051    3.98851277633462
C        -1.38705489806242    4.74613558204201    4.13390933977183
H        -1.81283041541869    4.97153366765523    5.10567460434329

