91
CSD_code = QAMPOM | q = 0 | S = 0 | Stoichiometry = C40H48O2Zr | MND = 12
Zr       -0.83061686734441    0.74101973245313    4.69820360535976
O        -0.18475500517873    1.79836711533841    6.09793086419175
O         0.38104061437618   -0.05940609210509    3.49873549360234
C         2.83199906580225    0.91704688381879    4.61874075310918
H         3.29781883754407    1.70390080752021    4.05489720158146
C         2.69590577820997   -0.46929088895622    4.09097440797171
H         3.60739742831789   -0.88859174989726    3.66665573869442
C         2.18170332345397   -1.20691175712913    5.27629022778801
H         2.06932772470807   -2.27583526598433    5.31662290492129
C         1.86013108136603   -0.33240564619176    6.24087412580630
H         1.49465570277114   -0.60086548484786    7.21539203327745
C         2.26048126604919    1.01799437084379    5.83568661191230
C         2.13221250396875    2.28401746606148    6.67130598390119
C         3.05131362867632    2.24203197523769    7.87910724228751
C         3.81668616656197    1.12611088682581    8.19416931149556
H         3.77216236690419    0.24522986964447    7.57333216563230
C         4.66186449275519    1.12093608599810    9.29080067388623
H         5.23821673888762    0.23269671410064    9.50838127704470
C         4.79042779057322    2.23528173995643   10.10567183875221
C         4.04957363833136    3.36429022714936    9.77942299201648
H         4.14139614160510    4.25541876828265   10.38467099205331
C         3.19832770191819    3.36697451468716    8.69068109195717
H         2.65550537804468    4.26943733014039    8.45537187309480
C         5.68901498576094    2.22347124773426   11.30435758233370
H         6.13249528691374    3.20355975743657   11.46622124118877
H         6.48350876489130    1.49036656296844   11.18691140959095
H         5.11714514995632    1.96273486126128   12.19576939880644
C         2.54180918756577    3.42568098266011    5.74524584433043
C         3.70423325179519    4.17006073849620    5.89482362285126
H         4.38240129425957    3.97659015775779    6.71091225978488
C         4.03014847833399    5.16771150494727    4.99037292727884
H         4.93943106318522    5.73382772127994    5.13606313647898
C         3.21775381707194    5.45058146455699    3.90264426379135
C         2.07754980737487    4.67530504208550    3.72597820692925
H         1.43755806770214    4.85752207777150    2.87365194630966
C         1.75579160014923    3.67409195800200    4.62132890100651
H         0.88756558464085    3.04393384811919    4.45754106049063
C         3.58179310932263    6.52759966270454    2.92594964174996
H         4.26780761251581    6.13517664854392    2.17428017559951
H         4.07601199389705    7.35526405899138    3.42987492174453
H         2.69841771449841    6.90171543549565    2.41396524502969
C         0.58033358653112    2.39073472044176    7.10280985114548
C         0.10311097947592    3.85931202949964    7.26414967519622
H         0.58663974032556    4.31856091841795    8.12395155317736
H         0.38898527918067    4.42467932485533    6.37694390714417
C        -1.41674594201999    3.94584844657414    7.41190102265285
H        -1.89389422573842    3.32969143534471    6.64905232933618
H        -1.74301438861043    4.97710339588770    7.29076016769107
H        -1.75002674504085    3.59668630164024    8.38539157931679
C         0.31139725649771    1.60889733784736    8.43042883801100
H        -0.69573351281994    1.19854894580123    8.31848026942010
H         1.00728105735414    0.77481976355418    8.49498985088554
C         0.37968114284851    2.33458918343792    9.77353896137613
H        -0.34536773627750    3.13750608411360    9.85536895205032
H         1.36881081599416    2.73857896392263    9.96149910437640
H         0.16021756089518    1.61267472143685   10.55960752924037
C         1.57596461868801   -0.46708258721378    2.95823222441900
C         1.44259337718939   -1.91514619238059    2.41652871106920
H         2.39697963477971   -2.24826039390068    2.00683981012633
H         1.19095328786168   -2.56206083648502    3.25728377320927
C         0.33804985013555   -2.04852161154152    1.37273948632766
H         0.62553873153764   -1.59652759720033    0.42677556328764
H        -0.56216467255700   -1.55810237900499    1.74245925217922
H         0.11761406559496   -3.09874203434564    1.19307746344849
C         1.97687879285088    0.51827593488755    1.82986608656059
H         1.19481976021408    0.46236739459892    1.07089819580735
H         1.93926799474198    1.52428613029546    2.25368823804954
C         3.33321460081531    0.29116916096469    1.17427440945038
H         3.47272518194694    1.01445779653248    0.37323852468992
H         3.40422787326202   -0.70361353969284    0.74159900638649
H         4.14500525187177    0.42049759780066    1.88542351055687
C        -2.45884457989062   -0.19472429750884    6.54295614184382
H        -2.86947860822848    0.37175342972887    7.36961057017843
C        -3.10866323509714   -0.44686866565760    5.32417519027944
H        -4.10761732538287   -0.11754511243941    5.07119910344601
C        -2.31842750656421   -1.34217840977955    4.57663238960236
H        -2.59905144543824   -1.81194526160642    3.64162303043623
C        -1.18572515997539   -1.66877319452372    5.35144991573900
H        -0.46683552109060   -2.44391481040295    5.12055562631503
C        -1.27391948524056   -0.95876456013305    6.56918915649088
H        -0.65470976118813   -1.12129617672308    7.43972620473265
C        -2.73078383938938    2.26718522776065    4.02885770847343
H        -3.53135800641948    2.50921733479680    4.72014019619297
C        -1.55359860638446    3.02621001779209    3.83642780997290
H        -1.30876664627926    3.94879229213833    4.34828235634544
C        -0.88299088037570    2.50492635027206    2.70799669205472
H        -0.01658483345036    2.93723275136054    2.22600842690902
C        -1.65115320191397    1.44597481672825    2.19438958266373
H        -1.45082737802867    0.90571945419532    1.27985739257236
C        -2.78714634952248    1.29906524730586    3.00020263841842
H        -3.62807311578506    0.65556381691636    2.77841082508837

