108
CSD_code = QAMVIM | q = 0 | S = 0 | Stoichiometry = C61H29BrCoF10N4OP | MND = 5
Co        1.14850035812091    8.15434471353068    4.88970241308309
Br        0.81644041996683    9.93512376886923   -1.30416727330611
P        -0.26043586420159    8.10005947417589    3.17999649905990
F        -0.46054671086634   14.64470068634270    9.34273942105775
F         0.85937190631185   12.53257058696266    8.29185840461831
F         0.68878418316115    3.56695849181256    2.37819001832214
F         4.98768808154258    4.11977787329056    4.25368335173374
N        -0.19471606895822    8.40305520222112    6.11909362969143
F        -2.93824705943327   11.44158157753527    5.71133170501170
O         3.16797307115065   10.58894879747751    0.81886683665452
C         2.64902592748802   10.57015160703197    4.40381216239230
N         2.70370771688127    7.65361378666067    3.97501388407585
N         1.59295827222398    9.96452504541903    5.03197262166861
F        -3.04026388423455   15.14980624337581    8.61246866254672
F         1.44777343170690    1.19470079559948    1.33605365833710
F        -4.27732419075332   13.52534880959679    6.79845470749012
C         5.11754081256854   11.79377557646138    0.71630598051273
F         3.99283932254871    0.27821596700611    1.72286921232511
C         3.60690525728686    8.52457092997930    3.42842576138200
C        -0.74800121636916    9.61578879500181    2.28003379577253
F         5.75527850162562    1.76158085796523    3.18573105913046
C         2.37764125028171    5.21364494554315    3.88190674939051
N         0.78664195761684    6.38528643376002    5.22433670154474
C         0.86753704610827   10.96044138302612    5.63585131396186
C        -0.99870938269707   11.93167935941506    6.96428892668112
C        -1.06796930650627   13.85614237392402    8.45189299834543
C         2.59189114528257   11.98128731810075    4.61868166043061
H         3.30323404535592   12.69121181947398    4.24310183997846
C         1.93966866575347    3.13812387660359    2.58864899300059
C         4.26845996704610   11.00557395411554    1.51192681687905
C        -2.27899548449196   10.66956109853412    0.75453397498944
H        -3.17748033575583   10.62860277841008    0.15747926150106
C        -1.90340333107309    9.57022804938996    1.50137676644290
H        -2.50566961274508    8.67312127165250    1.48209479145737
C         3.58929047136340    9.90330551636099    3.61972189764659
C         1.46223316281364    7.50914165896655    1.13954566918884
H         2.01381238932950    8.33849093618647    1.55666335249650
C         1.28664542253395    5.21271354277052    4.75360246191981
C        -1.85092129390640    7.43547368716487    3.74569891674208
C        -0.22056604636093    6.11414784305619    6.09033618818229
C         4.54619598836154    7.80389559284743    2.62892159415263
H         5.36977386485159    8.24268589004813    2.09910596531707
C        -2.38522388664526   14.11414770738310    8.08405421040031
C        -0.80536428128524    7.29138241516347    6.59763232110582
C         2.41599274059954   10.95846704104774   -1.48883002727683
C         0.25432254930504    7.13085387848739    1.72093934590909
C         6.28658590774427   12.31453238529727    1.25880283134714
H         6.94804941880425   12.92022125910315    0.65969981798183
C         3.04461707388228    6.40064001964155    3.53749607082002
C         4.18824059445268    6.49525633937655    2.68440053352673
H         4.66479008709434    5.67275097788001    2.18751680848596
C        -0.30174768292241   10.77018761115550    6.38828855047344
C         4.51361217010216    2.21073152753214    2.98217710858340
C         0.04344137893238   10.75442011442390    2.25836248204735
H         0.96302525273875   10.78140690478483    2.81639786415776
C        -3.01391679100303   13.28366823544676    7.16145902644887
C         5.71612394213450   11.26009006638163    3.36088794700405
H         5.96311277188119   11.06374939254223    4.39296340437364
C         4.54652495815137   10.72320836002536    2.84407132997029
C        -0.36119756116316    4.70928415777297    6.20705149775726
H        -1.06255172802837    4.20139155369866    6.84010161600253
C         2.82422172668129    3.92978684204962    3.32264926708636
C         4.77654595435621   12.47079832396022   -1.78102288202407
H         5.68038469528832   13.04827637054531   -1.89242120434967
C         6.56971232994685   12.03692784609549    2.58154125451402
H         7.47041572477141   12.43072448197872    3.02721879279676
C        -0.39348262128956   12.77497869307440    7.89629017858604
C         1.48528043669788   12.22119852326395    5.36969421449341
H         1.12764567896541   13.17378992822225    5.70954383621037
C        -0.33810538655357   11.85413631189831    1.50871780738314
H         0.28326665008600   12.73801598667467    1.50468859693896
C         3.29289044302333   11.10431394091712   -0.42727404807712
C         2.72553250175877   11.57214296252299   -2.69063889754309
H         2.04892263000215   11.46481134188522   -3.52349111461130
C         4.11332474151919    3.43099757024091    3.51425453613011
C         0.57509755938902    4.14606986774721    5.37878395985105
H         0.75925156917491    3.09923307549861    5.22824164121874
C        -0.81188783889967    9.49594082821317    6.64022378530460
C         1.94068548181419    6.85031696428422    0.02463623428986
H         2.88557057768232    7.14422629229748   -0.40799348915639
C         3.61550054034879    1.44917192259161    2.24041390138981
C        -0.50711112276851    6.13654251518390    1.11922790825622
H        -1.47754686547448    5.87072348050576    1.50672679320776
C        -1.50370031619853   11.81847613528561    0.76459148651132
H        -1.80259710084451   12.67654411611213    0.18153893494366
C        -1.85781683077555    7.67790188839823    7.46227788670962
H        -2.50726751405229    7.01064045749471    7.99475875689530
C         2.31945390450177    1.91718342775833    2.04684494998913
C         4.47521395557414   11.86168220638786   -0.57034707102849
C        -2.32026567674569   12.21014849178509    6.61686196386143
C        -2.82879197213464    8.32118208749107    4.19461215149177
H        -2.66092432842504    9.38650928716113    4.13032997525241
C        -1.86344433241412    9.04824017765723    7.49275469107944
H        -2.52163418694027    9.68022832734184    8.05806790755348
C         3.89186756688741   12.31717644326615   -2.83056021215179
H         4.10134659611518   12.77979272519197   -3.78239106708796
C        -0.02583153241353    5.48434401917648   -0.00308314995567
H        -0.61893859176558    4.70554920426045   -0.45805931540648
C        -4.00850416990279    7.84067032470150    4.72927628468752
H        -4.75881804990657    8.53581274821419    5.07377316469976
C         1.20491371928964    5.82066006567884   -0.53859805877159
H         1.57999849885473    5.29618841303017   -1.40473486511182
C        -2.05194468237669    6.06444467150258    3.88705950274563
H        -1.28117129371291    5.36752885145206    3.59271992918332
C        -3.24085223793262    5.59067123391228    4.41376054619138
H        -3.39345426760208    4.52594577133282    4.50902798194967
C        -4.22014401387440    6.47490505528937    4.83273662999216
H        -5.14290831544090    6.10100093770093    5.25064383296530

