50
CSD_code = QAMWEJ | q = 0 | S = 0 | Stoichiometry = C22H25AuIP | MND = 4
Au        1.41982405676439    2.55496218853963    3.24519054481484
I         0.34086666806325    2.11218144916300    5.60369411792716
P         0.34345652837917    0.74006594025646    2.32676471357956
C         2.28965041758193    2.79739003896892    1.42335355201148
C         1.94375136812175    1.85069275261666    0.42039362632739
C         1.01536846253906    0.80236849501315    0.65541201347695
C         0.65071928490222   -0.07116988068004   -0.34296662101065
H        -0.08281262465187   -0.84269897438453   -0.15925987861848
C         3.42860815812176    2.98265105633506   -1.15576065515006
H         3.85990872667524    3.04777929203570   -2.14424102363473
C         2.51216270648600    1.94796222391184   -0.88072522931115
C         2.13813324510231    1.01806593433580   -1.87168295602377
H         2.58505789722362    1.10693431825597   -2.85159491311831
C         1.22307226773450    0.03489966173979   -1.61467254818119
H         0.93411075147354   -0.66322083763015   -2.38635793222701
C         3.75010474326957    3.88400499135700   -0.18453935439780
H         4.44673058805648    4.68487330635732   -0.38435964529299
C         2.43948245515240    4.12729281977925    3.94738165641044
C         1.87060508713967    5.39291594207246    3.94589091970338
H         0.88779568042458    5.54679209195062    3.51960038284562
C         3.17803598902376    3.78910437119586    1.09475417562715
H         3.46119195853721    4.53138841021738    1.82546799469297
C         2.36359762867840   -0.81914283145824    3.26854861847642
H         2.86598733731683   -0.71489934282213    2.30526805165881
H         2.71736871090331   -1.73128006048083    3.74542187256597
H         2.65216389136918    0.02343748370204    3.89849278535051
C         2.54779689138975    6.47435774136750    4.48561904353293
H         2.08594101162646    7.45108899214328    4.47425863607962
C        -1.88156782763268    2.10837072287189    1.64692659553908
H        -1.28381317102050    2.44179966586653    0.79596765415639
H        -1.72398757699405    2.80307753358999    2.47262702600005
H        -2.93244599258866    2.14893567731561    1.36667787349678
C        -1.48964222317758    0.69192207659424    2.06631884667994
H        -1.67882525981068    0.00114704707219    1.23219200015351
C         0.42581859309700   -2.11686293954528    2.31435120511244
H        -0.63928749521252   -2.11286270208733    2.09028725298232
H         0.63983741828478   -2.99836913775085    2.91680681619403
H         0.98511468661091   -2.20159628149133    1.38446095918730
C         4.37550115009514    5.04179218928818    5.05465307834537
H         5.35247452609573    4.89105484916758    5.49086524611923
C         3.69540086661247    3.96266389622131    4.51423911653367
H         4.15829901415487    2.98455558698531    4.53695661911733
C         3.80293149214549    6.30074596341383    5.04001556231475
H         4.33084043201196    7.14255783901427    5.46370504061871
C         0.84803223412172   -0.87066199169905    3.08402057195516
H         0.36633357444441   -0.86511077533300    4.07317281166521
C        -2.25814305318138    0.24068702620908    3.30257218005218
H        -3.32709341491267    0.29684662457596    3.10283477583715
H        -2.04069933372392    0.88120562980868    4.15426333407299
H        -2.01705852681879   -0.78479607397079    3.57443348575086

