86
CSD_code = QAMZUC | q = 0 | S = 0 | Stoichiometry = C35H48AuNO | MND = 2
Au        7.06087576933425    1.12673604660804    3.63086022692778
O         9.02564025199122    1.18142016513655    3.41476543880354
N         4.43317483095168    2.11716632293487    3.28938911720904
C         5.11149464246381    1.12176593945821    3.78578173382063
C         2.96074015802723    2.02488990693377    3.38138323558992
C         4.44130257393990   -1.35152396513808    4.00453557516811
H         4.42078044311857   -1.43628234021311    2.91078196917923
C         2.78276533527801    0.57550582447367    3.84098927344534
H         2.51797191510924   -0.04655515883722    2.98422925991596
H         1.98331849353808    0.50147922149628    4.57103505647525
C         5.05618733651475    3.26990229723642    2.71592096287393
C        10.27521851810381    0.15624141534978    5.15697550236613
C         9.75647676384993    0.15922803070807    3.84868370237134
C         5.29968759637656    3.31251340017957    1.33589393723523
C         2.28943618937246    2.29083173636688    2.03684931052551
H         2.54413908386429    3.28340755706756    1.67215754751758
H         1.21025819763582    2.23646901764600    2.16111226963515
H         2.58173381122543    1.55388263940244    1.29520273987450
C         4.15606357015489    0.11578448688146    4.39224724722205
C         6.91559398652960    4.23737547325938    5.50357856204754
H         6.97070950393182    4.07251063940647    6.57742520166503
H         7.39914070159730    5.18299866954343    5.27341250019130
H         7.46392274199711    3.44173890029135    5.00101933427615
C         4.23161501919065    0.18476971964982    5.94037970131208
H         4.06392036138675    1.21940422583492    6.26335399508284
C         5.19938644483687    2.09075759076474    0.45117310378382
H         4.75212939942965    1.27014040829731    1.01956169655659
C         5.87827283084478    5.51006868040311    2.93994225001256
H         6.14875306691310    6.35239173820653    3.55657081402467
C        11.07055973090550   -0.89405308105843    5.57763697529576
H        11.46701282496536   -0.88447193435005    6.58488093027907
C         5.45139144723471    4.24823393712097    5.04875053930781
H         5.00711376405748    3.29903558466709    5.35828024340560
C        10.05426242849405   -0.91901664130950    2.99443050581334
C         4.76324361104578   -2.62977862443975    6.64268377289582
H         4.93714321673073   -3.66847792747736    6.35447686389055
H         4.79318451702864   -2.57584764498342    7.73323033763181
C         3.39998154031723   -2.16448727599464    6.13513771068672
H         2.61341604478243   -2.80117846592792    6.55596085000083
C         3.35717315725270   -2.25143469914139    4.60907654053837
H         2.36605368113544   -1.96931828415692    4.24972840812879
H         3.53744937473927   -3.28247155126847    4.29736878320160
C         2.40878968994166    3.02977872770197    4.39271418524682
H         2.63575201731957    4.04316111954982    4.07169493328904
H         2.82064280525802    2.86983471877838    5.38479648609293
H         1.32798645742485    2.92423958825582    4.45228852704387
C         3.17184732015334   -0.71986030899605    6.57536501986628
H         3.25892076508513   -0.64935882523122    7.66214863872065
H         2.16031573943773   -0.40374683742494    6.31598968632074
C         4.70599262253457    5.39032603554085    5.74359120780878
H         4.68619031138346    5.21454247818140    6.81691990721530
H         3.68080717663934    5.47469506856043    5.39182334212549
H         5.20287997719823    6.34090895175372    5.57017134553320
C         5.84255320813647   -1.73278404154024    6.03875308908557
H         6.82950554741733   -2.04617312957430    6.39323414647195
C         5.59694987280874   -0.28264926346081    6.44949787034350
H         6.39127545352380    0.35088050288737    6.05068693171386
H         5.61620341208850   -0.19865841537844    7.53895165338084
C         6.01303246005879    5.60441158140666    1.56983613750816
H         6.35571119810087    6.52426354793136    1.12057107826848
C         5.41700294067689    4.34569244061317    3.54024560951306
C         5.76485192542704    4.49824303864899    0.78288775080012
H         5.94606526257834    4.55286503301539   -0.27862746352533
C         9.93019515809505    1.29403158871630    6.07168859854478
H        10.50463522134205    1.24378309134198    6.99391670996528
H         8.86521392958676    1.26852163280587    6.31875850974748
H        10.12446211223889    2.24429402640076    5.57622888084098
C         5.79232755381135   -1.84764255663418    4.51897017572245
H         5.92275619008932   -2.89067153686502    4.22210632981907
H         6.60972793300496   -1.27502076991576    4.07723118563073
C         6.61581940508382    1.65743449240159    0.05556897797133
H         7.22442902626632    1.48830338512014    0.94266283678006
H         7.09838061110525    2.42197525843442   -0.54765149118678
H         6.57645741918655    0.73549076114123   -0.52038033902773
C        10.85135781942143   -1.95427258132555    3.44780962950262
H        11.07494754264233   -2.77821372636027    2.78228693735213
C         4.36546719173794    2.33502781580679   -0.80988636037897
H         3.39934381337139    2.77419415401033   -0.57397971557257
H         4.19986564121951    1.39356101944265   -1.32926103435529
H         4.88332578507697    3.00376757709904   -1.49198594608441
C        11.36549188809445   -1.94925658815160    4.73247446209669
H        11.99152905900073   -2.76184986673018    5.07240168110273
C         9.47524451060309   -0.92235398551369    1.61074467507824
H         9.85199648881562   -1.76155846567466    1.03034463362562
H         9.72031485611738    0.00802158875902    1.09979577211593
H         8.38453980468348   -0.98663030657067    1.65986108177829

