87
CSD_code = QAMZIQ | q = 0 | S = 0 | Stoichiometry = C35H43AuF6N2 | MND = 2
Au        6.28790231152310    7.02401852831161    1.24218619634350
N         5.88157001209805    7.44916256172861   -0.67046690218132
C         6.67255113961210    6.61287613487425    3.15083143346165
N         6.40255788111463    7.51004928412335    4.04939254145246
C         7.25048204580585    5.38444127992618    3.82347041085081
C         5.13277459941541    9.71123476738795   -0.41909926644890
H         5.27818447713515    9.65805841382003    0.65009981946118
C         6.62480657473608    4.05060359177389    3.36186633146944
H         5.54199428554718    4.09191933116141    3.53284563301184
C         6.67036753107963    7.13978788056727    5.45657145430997
C         5.21019578442076    8.70809676943884   -2.60353188551137
H         5.41949970490062    7.86252988350535   -3.24290697946503
F         3.96107846703578   13.13565753431637   -0.71865078761116
C         4.04929652209579   10.33505789884124    3.61626543413829
H         2.98885298839696   10.52571070120917    3.61198686095993
C         5.89695212665606    8.81295085164775    3.74202404210147
C         6.94955071588892    5.64150137161997    5.32099371803266
H         6.05880152280163    5.07946591219982    5.60668688618194
H         7.76104706736329    5.34295977947173    5.97644626411499
C         4.51169412858226    9.03089183339678    3.73230645348182
C         5.42437900079902    8.58054051434100   -1.21079207177240
F         5.47210036673723   12.41149292285537    0.62148929615495
C         4.92551450312503   11.39374961682975    3.48977262169898
H         4.55000581203352   12.40259686128028    3.42650290076147
C         8.77013958373534    5.28584730761971    3.52788440629597
H         9.25439386989326    6.22698107694898    3.81387252656820
C         8.73426559534714    2.81702830936245    3.91917024757387
H         9.15826700342667    2.00149628628380    4.51543852421081
C         9.02951574631820    5.02246645078478    2.04298480328612
H         8.63063511569968    5.83595953269169    1.43430552134858
H        10.10830374779751    4.97722548425806    1.87569376249358
C         9.40073835610798    4.13328450157884    4.31425756826995
H        10.46620672245449    4.09067783694121    4.07674687216975
H         9.32094479508926    4.28539593218286    5.39143053527760
C         5.47332867360831    7.42499788934230    6.35871491717094
H         4.60646417979456    6.84173843576910    6.06393979628905
H         5.21668399888346    8.48153405291309    6.33310387930933
H         5.72896870695469    7.15821369462034    7.38164674298562
C         6.27838790486657   11.14929219281387    3.37197329070577
H         6.94652934231181   11.97203932282368    3.17775905596836
C         8.25649017769708    9.64244982116210    3.18322738146717
H         8.51665447307381    8.60048398560049    3.38830947888725
C         4.73935477953706    9.88134140130446   -3.14834795783521
C         6.78938738897057    9.86187083556566    3.47720466606872
C         9.17336080125078   10.55121234420896    4.00613332259389
H         8.95169398641589   10.49213196815450    5.06881900682326
H         9.07051137571350   11.58687158168938    3.69511598378187
H        10.21028839305510   10.25860475086324    3.85614758475169
F         3.43900242154537   11.74936206013668    0.83394390623967
C         7.22950929043942    2.90175689223201    4.17683130528236
H         7.04325814074767    3.03560050477000    5.24348445395539
H         6.75464413430405    1.96518825585821    3.87673203076382
C         2.88462735579035    7.80274437003922    2.33068772848718
H         3.64909472820115    7.57943809736927    1.58771022606556
H         2.40605350121805    8.73838384890267    2.05389598980010
H         2.14013256544805    7.01006676931904    2.30994066329461
F         4.48248372446419    8.80954873265926   -5.25755317187846
F         5.55932510486345   10.66752872587406   -5.22535884481208
C         7.87186277858431    7.90936682078773    6.00464601873601
H         7.66320570063154    8.97582088113953    6.00237374734719
H         8.77028189501150    7.72128700126797    5.42399931731195
H         8.05909070850417    7.60046840577311    7.03039072531590
C         2.39503610279005    8.09885774049727    4.76687099826455
H         2.79944670817185    8.34250937650452    5.74614876621995
H         1.80568906472324    7.18836169250650    4.85267420927640
H         1.72602480366346    8.90058185595534    4.46752807970884
F         3.42690658695743   10.65693150676172   -4.96494050430203
C         3.50461815705222    7.90288732625361    3.72938299141594
H         4.01655647727950    6.95697478902631    3.93131840156288
C         6.88544435935935    3.75977770057909    1.88479503828792
H         6.42824359499477    4.52798548719547    1.25855591160917
H         6.42707214289287    2.80235465455985    1.62702423940142
C         4.66791198750752   10.87646300173596   -0.99380883878743
C         4.38569631084836   12.03351374128820   -0.08713304898479
C         4.46086594122131   10.99565962913531   -2.36219357192415
H         4.09546571810231   11.90895958593838   -2.79990295437471
C         8.38756373815485    3.70096440266410    1.62578393025546
H         8.56792748867588    3.53233897162843    0.55914951193943
C         8.99019705581842    2.55502787391113    2.43675064368887
H         8.53618113292646    1.60762886503697    2.13895740947176
H        10.06399326761342    2.48441900981840    2.25021502026845
C         4.54938923567088    9.99583877788469   -4.63106425765372
C         8.49874178234447    9.89208539914972    1.68979388841666
H         7.91032130664968    9.20291214382691    1.08574863370761
H         9.55053644900135    9.74534743370847    1.45463097578578
H         8.21810592320763   10.90582683042673    1.41695995379198
H         6.03801832769918    6.73913161775443   -1.37319184441414

