81
CSD_code = QANBAL | q = 0 | S = 0 | Stoichiometry = C33H40AuF5N2 | MND = 2
Au        0.67054844167413    6.91705371148285    1.31935588376134
N         0.15100553983166    7.63192399988204   -0.49445499808130
C         1.20119553839547    6.19178283762004    3.10310472479885
F        -0.65867860221638    9.45832895793635    1.45679258699081
N         0.93583708564596    6.88020008470242    4.17007116148168
F        -0.32498753454175    8.30206325537637   -3.13655235355948
C         3.40845598340344    4.98900767970726    3.09697405899117
H         3.84758902985927    5.89678146502113    3.52701155659293
C         1.70061266284185    4.85834529457817    5.02690427406596
H         0.86877910466212    4.18776058239376    5.24934120816453
H         2.57285345829560    4.50355619308478    5.56590987282501
C         1.34497926128525    3.63932725860259    2.82284433794814
H         0.27675199066078    3.56229888098327    3.06007925277103
F        -1.84031670674413   11.76684572575667    0.78757066285052
F        -2.29977681800128   12.41317248641528   -1.84656135924137
C        -0.43874453198018    8.77961247220265   -0.81668850730818
F        -1.52346287844517   10.64207132034321   -3.79842611449995
C         1.51919881974570    3.64749768732787    1.30507024387736
H         1.10931427922949    2.72070654995388    0.89743578378785
H         0.96817608028221    4.47919439905461    0.86289023898796
C         0.30451331421871    8.16427395589471    4.14295263993174
C         1.91070974678727    4.91023956945764    3.49298593108881
C         1.08296610410875    9.32216349032095    4.01406044071604
C        -0.86024686297210    9.72722479715288    0.14258670879833
C        -1.09069661340620    8.24389874950888    4.24837387878736
C        -0.70139327494466    9.16211426311307   -2.15717708858978
C         4.16993149163832    3.76498913772399    3.61342619712800
H         5.21616231973338    3.85174187147765    3.31114000976901
H         4.15744027717470    3.70875689000846    4.70269920997527
C         2.08205721558483    2.41135128183172    3.36944441785585
H         1.96331968628614    2.33019229920969    4.45095281070954
H         1.65137887687377    1.51170443215545    2.92459515014159
C         1.33827677650487    6.27952075026181    5.46186858217243
C         3.56705722440371    2.49557516384529    3.01505257113409
H         4.08628400206073    1.62029110185819    3.42101530276335
C         3.57899006414680    5.02542345990432    1.57673646228183
H         3.08393219370576    5.90300447690787    1.15730321551267
H         4.64384480242514    5.09759797272463    1.34276619342963
C         2.99956501141316    3.75703972518758    0.95406451794908
H         3.11457760503505    3.80313148762062   -0.13365116081435
C        -1.98969109279353    7.03333547815899    4.13045627923944
H        -1.38140215293810    6.12439790656156    4.15425582732582
C         0.45309259678018   10.55408618455254    4.13299539901122
H         1.03480842002147   11.45736633843069    4.04238089617808
C         2.54712427540784    9.29309609889332    3.63568032958186
H         2.90540235193525    8.26077618906427    3.65245115887587
C         0.20586221858040    6.30317263287781    6.48444174967681
H        -0.63905599379521    5.70502828958256    6.15825080141120
H        -0.12803629809396    7.32281708661027    6.66211452441449
H         0.56814174758793    5.89127496801426    7.42365037811110
C        -1.47038915258405   10.91915514637602   -0.18959199409598
C         2.52993072677573    7.02420317756978    6.06420693179948
H         3.39018527243865    7.01477696382830    5.40138016894960
H         2.81666765887104    6.54669055596985    6.99830900158923
H         2.25588602042875    8.05364029551045    6.27754289929986
C        -0.90747250784829   10.64614893807022    4.34060732714887
H        -1.37698043149180   11.61297751133189    4.43516574736950
C         3.73418543121385    2.53275575934308    1.49767555302461
H         3.32523025812419    1.62348033777071    1.05233523769143
H         4.79437823060396    2.58346112770470    1.24024534105219
C         3.42096616045557   10.13374529007664    4.57063515639438
H         3.25852042080285    9.87578331941988    5.61423542242917
H         3.21152407666094   11.19263380448375    4.44797227504480
H         4.47105537800099    9.97135594569311    4.33739493236330
C        -1.67343328574752    9.49876628550762    4.35952985077270
H        -2.74494060020383    9.58089670331160    4.44459662149942
C        -3.03295245452126    6.96095559353981    5.24958204213700
H        -2.57868743470283    7.08594784822917    6.22940521056170
H        -3.53737132352942    5.99725448509982    5.22229242160676
H        -3.78648203897556    7.73346161037347    5.12514912830422
C        -1.30967527659488   10.34854970131212   -2.50568300265864
C        -1.70470644233384   11.24921791507650   -1.51941475465657
C         2.69899303099031    9.80327162108990    2.19852102088005
H         2.11389204849989    9.18935947556914    1.51606829693100
H         3.74322707304189    9.76068128723660    1.89609264180373
H         2.35327130115719   10.82980501419803    2.11439722058697
C        -2.69594623946397    7.07178309356587    2.77113019591132
H        -1.96397709069854    7.06685219554073    1.96525879097808
H        -3.29952734694761    7.97024824256509    2.67687901511762
H        -3.34176084982025    6.20318881426150    2.66094174764775
H         0.37264315004915    7.08873504904449   -1.31760629725652

