25
CSD_code = QANFOD | q = -1 | S = 0 | Stoichiometry = C12H8CoSe4(1-) | MND = 4
C        10.05740479159021   11.00533973263491   10.62099722152157
C         9.23731399329036   11.41243406094478    9.55816029864457
C         8.27004459807733   12.39301420244543    9.77462742620395
H         7.64535373944978   12.69554366925015    8.94500983839682
C         8.11883857537953   12.96022477212438   11.02105748493576
H         7.36625019156305   13.72066938095469   11.18065330626445
C         8.93303634074889   12.55656689646733   12.07569720748642
H         8.81202372349579   13.00437125514761   13.05290504711009
C         9.89263620535936   11.58816064544123   11.87684150655896
H        10.53282951546582   11.26341562048416   12.68600068183305
Co       11.16024505104194    9.12678042534271    8.12476115818074
Se       11.37108804273889    9.67378880766911   10.32910745278321
Se        9.46027354764937   10.62307832606068    7.85197024313155
C        12.26423782152988    7.24782314201665    5.62923427970818
C        13.08404954641051    6.84105116066437    6.69241562864003
C        14.05143192397988    5.86047122389112    6.47646353183079
H        14.67593935211605    5.55813873306551    7.30629886606009
C        14.20300917730878    5.29294111053174    5.23022229299263
H        14.95567110476895    4.53249715446157    5.07097128533637
C        13.38908728650241    5.69627404777109    4.17524774641583
H        13.51033995159318    5.24825111984648    3.19816969009553
C        12.42937756815099    6.66467424872104    4.37358408766936
H        11.78935048119233    6.98921020929073    3.56421778137588
Se       10.95041612374953    8.57936237361381    5.92039355665838
Se       12.86045134684721    7.63091768115873    8.39829238016573

