35
CSD_code = QANFER | q = 0 | S = 0 | Stoichiometry = C10H20ClN3Ti | MND = 8
Ti        1.13055013639776    9.24719145993288    1.60264423838219
Cl        1.10918179042538    9.37610093922141   -0.59836513670096
N         2.76970489069167   10.45161564604722    2.13063738891094
N         1.87910312161410    7.60158116724948    1.81120381835550
N        -0.64400347319633    8.81827440535003    1.82367998674958
C         2.25894353250576   10.08389279825810    3.34685982382304
C         1.05446470301436   10.75427717221019    3.58624691225665
H         0.48397347554471   10.73370868914201    4.50582753444798
C         0.83697773012483   11.59569336230911    2.46401276313614
H         0.04948215009987   12.32774881485021    2.34611683078936
C         1.92206976669759   11.39185757235367    1.60960408061232
C         3.02665776236741    9.20873160372099    4.29409192886153
H         3.51489093276588    9.82748020083661    5.05102897429314
H         3.79686413141354    8.66354816829932    3.75084032640085
H         2.36498748976311    8.50484728919042    4.80039215990237
C         2.27668457660790   12.15445436007427    0.36872385120130
H         2.71461174077052   13.11708123360300    0.64490620197132
H         1.39554859697894   12.33763529137777   -0.24665886892712
H         3.00907434414358   11.59631231938029   -0.21447480556671
C         3.09103107317373    7.31520901121959    1.08157849496626
H         3.85215891434812    6.86163234096551    1.73733930917748
H         3.49694816591772    8.24218396344526    0.65815652601582
H         2.89514499161583    6.60828966654853    0.25677319783727
C         1.41882241127713    6.46897349640152    2.57243176640121
H         1.17935970413541    5.61400211708434    1.91815219159321
H         0.52312535702674    6.74611417166386    3.13594228330092
H         2.19434023451196    6.13162102485737    3.28013803374753
C        -1.16693500587853    7.80160318595031    0.92990428101151
H        -1.82406833121488    7.10573466540022    1.47680126492584
H        -0.35382969176651    7.23444846797066    0.46996305410844
H        -1.76432979960238    8.26457049868382    0.12671849237795
C        -1.75390317952998    9.49044545097333    2.45882745934940
H        -2.37465427344602   10.01521152463179    1.71214169037080
H        -1.41462029594160   10.21475255012692    3.19877820123058
H        -2.40495767335605    8.76137537067036    2.96913574468627

