43
CSD_code = QANJIY | q = 0 | S = 0 | Stoichiometry = C14H16BN6O3ReS2 | MND = 6
Re        1.76996957483894    1.40104265022994    1.97126334056256
S         3.80982598664315    3.02337223744688    1.64321119303415
S         3.47725031858695   -0.08486914439407    3.20447556908324
O         0.16293025069925    3.38041384158035    0.21978140376713
O         1.27532667951410    2.86923449988379    4.64116462998931
O        -0.50252295635383   -0.64562844787980    2.43452483007120
N         2.59261160998626    0.33961978637098    0.29914040221768
N         3.94294006896986   -0.14698767616691   -1.34887534578120
H         4.60907537149714   -0.02894785431294   -2.09474757490555
N         4.52380187620061    3.65457204734121    4.20770309538652
N         3.15955868886775    5.07500274427734    3.24533251029925
N         4.29825789459149    1.46859251042200    5.30660146689495
N         2.64827798354174    0.09595448877105    5.74915606062222
C         0.73045640306115    2.61898851213997    0.86881532635644
C         1.38928658046942    2.32981225364116    3.62728082098931
C         0.33563769881881    0.11818134227689    2.23640428443766
C         3.82627492126966    3.90621775972150    3.09868048562078
C         4.28054719206340    4.67397829550690    5.07913602287612
H         4.73730375027265    4.69600470035329    6.04634099080200
C         3.43439013838786    5.55789774388245    4.49541682452220
H         3.01246987976221    6.47284481420169    4.85621526702590
C         2.26435603268159    5.63906743024105    2.27743223889375
H         2.08536364346029    6.68490122590019    2.51806024194734
H         1.31565549371919    5.09244999523908    2.27671922233916
H         2.70665665650709    5.55508885665455    1.28378172044702
C         3.47922077518203    0.55413127466414    4.78413945563754
C         3.96672637610123    1.60532516605960    6.62167015328916
H         4.49215353258662    2.28721818673029    7.25689947508922
C         2.94359751033308    0.76251030616877    6.90644316031618
H         2.41059165215383    0.58349554730641    7.81701194697933
C         1.59856207330339   -0.85821070866588    5.54056645859184
H         1.25619199946682   -1.23565863943223    6.50150845112644
H         1.97317989105481   -1.67985113568472    4.92845300310494
H         0.76375229319029   -0.38940443363295    5.00939529267976
C         2.60775058964234   -1.01411102858902    0.13594139131460
H         2.02823451104300   -1.66281347235703    0.76324080872546
C         3.44779242167834   -1.33164149197286   -0.88709146607758
H         3.72506444459666   -2.27611527576155   -1.30617143197538
C         3.40345294539037    0.83442471373686   -0.60657630264356
H         3.61861494974359    1.87715959272219   -0.74405756457437
B         5.33280234783851    2.36511325207066    4.55538226944049
H         5.69731622193797    1.83044736914606    3.56656133440533
H         6.19779372668881    2.65857616414622    5.31606853705968

