34
CSD_code = QANJAQ | q = 0 | S = 0 | Stoichiometry = C11H12BN4O3ReS2 | MND = 6
Re        2.43523435722438    0.49358110109993    0.00004637171596
S         4.22785909590277    0.02286058083832    1.73923710276107
O         1.56096760956754   -2.46223943107022   -0.00004934795859
O         0.60455531103752    1.35340721997143    2.33728966544540
N         5.20378379237420    2.56761360413028    1.24539533316894
N         6.10195535746293    1.46527616710521    2.91908186370150
C         1.82509967018241   -1.35058765796784   -0.00003148620568
C         1.24662228150746    1.02023702617834    1.44716507376908
C         5.17583947284997    1.40884625014360    1.92844392379400
C         6.16171102267315    3.35950705395747    1.82390336675084
H         6.36038026650202    4.34316897025624    1.45369506724609
C         6.72029064511183    2.68687440120664    2.85523360416613
H         7.49256927530470    2.96937626186513    3.53995151757224
C         6.34895138512085    0.41431467206919    3.86277983370010
H         7.07221425078742    0.75676362190913    4.59910581800316
H         6.73412791818035   -0.47088454290441    3.35183740495574
H         5.41713696745814    0.13647029763151    4.35941258999643
B         4.39575990257188    2.97859682604002   -0.00000632032390
H         4.21379736434642    4.14854176103033   -0.00003844675547
H         3.30747978173360    2.37455064803501   -0.00007572104480
N         5.20381846217204    2.56760796817834   -1.24538351749431
C         5.17589185660879    1.40882675645644   -1.92840805498012
S         4.22800826336411    0.02280038401398   -1.73905158675449
C         1.24674821816976    1.02029640414146   -1.44720643494569
O         0.60467311072163    1.35400747894712   -2.33716028885269
N         6.10197005459582    1.46526400524849   -2.91908218053848
C         6.72026740605410    2.68688371947848   -2.85527701400859
C         6.16169967637628    3.35952191750114   -1.82394180372573
H         6.36035454905046    4.34319779142326   -1.45376285025182
H         7.49251725478489    2.96939365893815   -3.54002550029550
C         6.34895101504448    0.41428493985847   -3.86276667858878
H         7.07222267803953    0.75670461842406   -4.59909851530456
H         6.73410770856259   -0.47091473350672   -3.35181156874941
H         5.41713401855603    0.13645025937194   -4.35940121996763

