34
CSD_code = QANJEU | q = 0 | S = 0 | Stoichiometry = C11H12BN4O3S2Tc | MND = 6
Tc        3.82007121476374   10.85132381184965    9.68269666410155
S         3.54383832252571   10.65568159012317    7.15660713232355
S         4.44791658598526    8.39920084529833    9.65345082029904
B         1.20579377743236    9.37928651969428    9.22556206044017
H         2.03082561946121   10.16596758454049    9.72204193546913
H         0.16134323260610    9.46011068225039    9.77822647387142
O         2.81579668147482   13.74980616264111    9.52678904696048
O         6.73696471800512   11.74649869349510    9.41346701717546
O         4.00608160071206   10.87670600365756   12.74848951755213
N         1.39420979447792   10.25660957706812    5.63561319651759
N         1.03036246003162    9.70608466269769    7.73061632716988
N         1.74748461276760    7.94110557945621    9.33383399197651
N         3.03227629496496    6.16454813479647    9.47219757824036
C         1.94938901057796   10.18901006641109    6.87293771925855
C         2.05861612433226   10.72793815081916    4.45566229606521
H         1.32816624329629   11.16424889270221    3.77661310927274
H         2.58002795486384    9.91093096511684    3.95060345110723
H         2.79435954859189   11.47988114866114    4.74279268688019
C         0.10194684108925    9.80319305021110    5.72334205709309
H        -0.54279537888199    9.76287539940989    4.87030229530932
C        -0.11464566399904    9.46905979386131    7.01510812599621
H        -0.99410395368436    9.08849705487611    7.49054260850544
C         0.95653685706960    6.82370508489986    9.24706942365406
H        -0.10439223472486    6.90604304464957    9.13780639832989
C         1.74080081319151    5.72583920245416    9.33062810088135
H         1.49447255754934    4.68479507387197    9.30378117361162
C         4.21327870268247    5.36361454538260    9.61133287117550
H         3.92844688554635    4.31968258656432    9.71979967993360
H         4.77625175084405    5.68827555702427   10.48845193787467
H         4.85689843408461    5.48069173923405    8.73641058992338
C         3.02016443610245    7.52286300324384    9.47256892936728
C         3.19808759542096   12.66725116363652    9.60125367356613
C         5.64281392539436   11.42829040554519    9.53049292124612
C         3.93841463543418   10.87808422384854   11.60060818884585

