139
CSD_code = QANLEW | q = 0 | S = 0 | Stoichiometry = C56H69BN8O4Zn | MND = 5
Zn        2.84442771189927    1.17631097012120    6.00918141064197
O         4.09323497805822    2.83163560005775    5.90781256326215
O         3.39433369172660    1.01965592854284    4.14815046101352
O         7.81526165830109    4.51168496299571    0.98508097458235
O         4.10465344057687    2.15002643535431   -0.40131975535219
C         4.54915234893405    2.97921324945859    4.74104331681441
C         5.42042824184885    4.04192426209939    4.33211684045991
C         5.82370919063580    4.08060458873610    3.02677177434158
H         6.48782679503440    4.85776354930082    2.68998362589819
C         5.40562655100922    3.12856160177339    2.05926109982313
C         4.57324423186130    2.08633818451510    2.42192319029746
H         4.23145012103569    1.35217773117307    1.71098239956129
C         4.14111996320374    1.97082269309622    3.74935652707450
C         5.85279369161948    5.08334998963185    5.35090106052645
C         6.77386988863973    6.14898851802136    4.75024861620865
H         7.67940329823785    5.70492016698293    4.34407966008420
H         7.06260253874034    6.85228254269682    5.52879681559293
H         6.26963596625674    6.70773060245360    3.96484649593315
C         6.60349745126898    4.37937528636284    6.48808935576893
H         5.96424123666809    3.64079160699558    6.96149711351837
H         6.91487683204917    5.10525525403788    7.23663109587638
H         7.48595390208155    3.87511677035762    6.10004918073676
C         4.60537959995575    5.77987029404713    5.91005540701105
H         4.05587934589513    6.27267098304053    5.11041720303521
H         4.89326230121131    6.52610962784650    6.64782795810278
H         3.94806059802571    5.05666611593291    6.38241123611305
C         5.84933578897512    3.27036805131356    0.68988085078385
C         6.98747796031475    4.02439871950501   -1.19565829036208
C         6.03619818906778    2.88032960428437   -1.59714713758972
C         8.42680477000671    3.89893833353967   -1.67554596764783
H         9.00735762527277    4.71413134032928   -1.25063658930653
H         8.46717508632614    3.96079945981787   -2.75930431728645
H         8.87785887019841    2.96659597365981   -1.35094197316935
C         6.45052225832259    5.41787098921333   -1.54429416677716
H         5.42762505713300    5.53911363744677   -1.19436584826896
H         6.49061293487313    5.59208934245664   -2.61548981037559
H         7.07016938329760    6.16077707828860   -1.04600660939037
C         6.74125316139939    1.52878257291620   -1.76794018390749
H         7.37473650096880    1.30908548829597   -0.91110045263656
H         7.34041799555229    1.51623447969959   -2.67362987215311
H         5.98454436602878    0.74993435144730   -1.83830341750104
C         5.14139564683464    3.14288053747888   -2.80046214397676
H         4.46804055914065    2.29831197193546   -2.92451273497956
H         5.74337409863563    3.25250523981406   -3.69797207724401
H         4.53488817999993    4.03246375985643   -2.66267384650850
C        -0.41700760824759    2.40145183615926   10.01691251239201
H        -1.04807741194309    1.51477165232907    9.99809829523195
H        -1.02536660143321    3.26155419940746   10.28314059037165
H         0.34395223488287    2.25700478949110   10.78156378435832
C         0.20953159775919    2.62662465403376    8.68781838410811
C         0.08392029952707    3.72470708139056    7.85585582242100
H        -0.50486626452303    4.60230661620182    8.02942574611629
C         0.86302940250149    3.42858995546752    6.73046366361039
C         1.09893136624245    4.19992181883870    5.51826215976485
C         1.34305373968943    3.54386940200250    4.31346711836307
H         1.28978304983537    2.46599837650606    4.27641921265617
C         1.63830578002856    4.25353578109128    3.16828732982530
H         1.83978518103004    3.71315222126836    2.25558269960768
C         1.67978213187303    5.64329176714487    3.18311833315950
C         1.39513972916093    6.29664671479769    4.37620519848553
H         1.40818544723973    7.37792327357307    4.40621388726821
C         1.11066300979227    5.59144322451312    5.53077087447179
H         0.92215189515888    6.12108184993498    6.45293510941857
C         1.99851562337663    6.42714983411474    1.93415246830828
H         2.07867786234593    7.48632901235429    2.20590721866209
C         3.33118718623034    5.98764449860486    1.32498145814832
H         4.12393506195138    6.03657598896015    2.06829117227178
H         3.59174950644846    6.63829017746740    0.49148957683711
H         3.27007818953103    4.96467356974201    0.96170087847206
C         0.86674612927970    6.27865463514663    0.91387639126316
H         1.06858001655586    6.88464732428452    0.03279776916807
H        -0.07849568824116    6.59979714466983    1.34615757753517
H         0.76823395005198    5.24101464467811    0.60483435610506
C         0.18165997024924   -2.49534073613415    8.77524226871388
H         0.98577579719435   -2.58876632038102    9.50342212308283
H        -0.22371741161381   -3.48251257099396    8.57036340183402
H        -0.59948248554570   -1.87582580542244    9.21178894780257
C         0.68713814257009   -1.89346109254227    7.51333071902058
C         0.72073929562077   -2.45336463428400    6.24938497545836
H         0.36741355582147   -3.42142404686748    5.95741294674453
C         1.29005282002067   -1.47469883224998    5.42650336015175
C         1.53843649980380   -1.51482659735722    3.98821052812155
C         2.18455494950967   -2.60066671059246    3.40815878550424
H         2.51592309526588   -3.41870573309439    4.03246878879615
C         2.42201897580159   -2.63053029120815    2.04712219854526
H         2.93720598158242   -3.48099929308358    1.62567952292841
C         2.00801721588973   -1.58903259986786    1.22515389930018
C         1.36254796211289   -0.50651437342285    1.81164721489076
H         1.04039797100949    0.31708798187637    1.19008493287749
C         1.12916586979514   -0.46585161521428    3.17174635993222
H         0.60497156000861    0.36993286152274    3.60967250483526
C         2.25571041580632   -1.60134086929881   -0.26428382409819
H         1.55858921863839   -0.89349044705547   -0.72641002953880
C         3.67887549602728   -1.11945924596273   -0.56184986362301
H         4.40462605785822   -1.70158568482560    0.00300482358862
H         3.78160020434155   -0.06939248246562   -0.29538278571308
H         3.89520176752914   -1.22861175773071   -1.62366806571417
C         2.01208141582493   -2.97791826871132   -0.88527048141787
H         2.01912893544852   -2.90289693063447   -1.97097640742255
H         1.04721429474319   -3.37206383735026   -0.57325824772153
H         2.78585363984161   -3.68378879432742   -0.59354926766151
C         3.30698277225074    0.20723527403178   11.17391150969816
H         2.72102143552130    1.08969827986654   11.42544794358018
H         4.13547603964426    0.12445841159076   11.87202118475088
H         2.66468761896530   -0.66491243004310   11.28128953950243
C         3.82992875593678    0.30868755901064    9.78622786198591
C         5.14621258539303    0.33908936864332    9.35930001807358
H         6.02446164109382    0.27326967693880    9.96875048396747
C         5.08114680495538    0.44442435648957    7.96460167581964
C         6.13806962731646    0.51026512140422    6.96610581572299
C         5.91823532560722    0.00020807875732    5.68757580462886
H         4.99183895521816   -0.51102401104579    5.46685816205301
C         6.87735776601371    0.13263337884292    4.70512578987502
H         6.67111644817076   -0.25901218360026    3.72020820227123
C         8.09124996401593    0.75822985876252    4.96761439758933
C         8.32358830468982    1.22310026594220    6.25609593681676
H         9.26823847221394    1.69630766364102    6.48793925547102
C         7.36442898149047    1.10562674488082    7.24454258033870
H         7.55573786408482    1.50171669780299    8.23099124275601
C         9.14406024591487    0.90137219258215    3.89667026387461
H         9.97107393472909    1.49299021002772    4.30540524273434
C         9.69031822088356   -0.47544439598856    3.50758971343799
H         8.90326920695887   -1.09232326590766    3.08056484539175
H        10.08900295499207   -0.98622098382593    4.38160883078681
H        10.48658989222061   -0.37293225477256    2.77308026406044
C         8.59829845687959    1.63264823402705    2.66978605606900
H         9.38705633312143    1.76473086241915    1.93154475114792
H         8.22046026064762    2.61448548393791    2.94390376275119
H         7.78635690265169    1.07109105400117    2.21301016331906
N         6.94381948919986    3.93515849500600    0.28063658163649
N         5.21356937624256    2.75175653012493   -0.37693072162628
N         1.41908935066978    2.23083903314148    6.90151795518816
N         1.02576257375776    1.74314325133037    8.08334626129113
N         1.58223683613395   -0.40703259958907    6.16329161115500
N         1.21507239322641   -0.65794504381283    7.43019527770048
N         3.80069784438233    0.48131122369119    7.59988906983290
N         3.04334388896104    0.40062308499367    8.69924827909526
B         1.50897176347819    0.35744195700307    8.54678109572317
H         0.98925067795587    0.04574305623582    9.55858333526430

