127
CSD_code = QANMOH | q = 0 | S = 0 | Stoichiometry = C60H60FeN2O4 | MND = 4
Fe        1.83990482948750    2.25567801305308    4.42742078499298
O         1.55452294791934    0.49767203318213    3.34399691814842
O         1.35344582638887    0.56405631688557    5.51547218976705
N         3.75598766945414    2.01156382740969    4.58111071198803
N         1.74924099624931    3.55651164903933    5.75957330771625
C         1.07862890943139    0.02949885186640    4.40880826729010
C         0.13245522302856   -1.12029363875936    4.33458418320080
O         1.90564470270284    3.51226062644929    2.91647876303576
C        -1.20153633282787   -0.87442514077921    4.65331162897115
O         3.02036240424377    5.30231295615628    3.64064963813041
C        -2.11990468722322   -1.90699425671570    4.52427998646600
H        -3.16153023131633   -1.72745723010026    4.74799333834733
C        -1.70101218428310   -3.15646411269608    4.09689552279068
H        -2.42099440049992   -3.95592606645839    3.99657315566748
C        -0.36911450501068   -3.39353384328477    3.80108331511289
H        -0.04714763241225   -4.37447129458744    3.48188007947720
C         0.56509698807488   -2.37044241971962    3.91015357726171
C        -1.54258207785737    0.48783431494571    5.12699484198599
C        -1.53441106982819    1.56945460322734    4.24538997719499
C        -1.74540731333897    2.85109597666184    4.74459912722001
H        -1.74556904298578    3.68496389719340    4.05717665060822
C        -1.98068268380642    3.07370481296301    6.09129552724377
C        -1.98023952858189    1.98428860916762    6.95297754781844
H        -2.15064668849894    2.14658171916261    8.00834200309575
C        -1.75290104312161    0.69869368412471    6.49329556805201
C        -1.33916865214982    1.39416314400141    2.76611251259061
H        -2.11073675432848    1.93561820727495    2.22015833295554
H        -1.37773801825314    0.34613986489721    2.47867360599714
H        -0.36968962481528    1.79795576318121    2.46766832423369
C        -2.26649560669975    4.45006347326758    6.61123534539413
H        -3.32403948587009    4.53901155235876    6.86319430245763
H        -2.02383874461735    5.20236100755193    5.86651929064667
H        -1.69126517183812    4.64836708257758    7.51381961927857
C        -1.69027829182266   -0.45253955662110    7.45173677432645
H        -2.44192208771948   -1.20358681374637    7.21411573065606
H        -1.84853793455183   -0.11170131561455    8.47192207722382
H        -0.71254635326198   -0.92904404028132    7.38941653375746
C         2.00603046162381   -2.57755537990049    3.63463623489473
C         2.87109241565851   -2.84038656897946    4.69819439909132
C         4.21743753421536   -3.04353857042943    4.43759704387674
H         4.88743374606986   -3.26035575009893    5.25863726294595
C         4.72106992847333   -2.98022987260977    3.14537737039575
C         3.85184097492073   -2.67795566391906    2.10839323473831
H         4.23463576897687   -2.60408955940623    1.09980014698489
C         2.49879031123198   -2.47151029175948    2.33476665002813
C         2.34804548631857   -2.87483631565151    6.10354418338805
H         3.11342358351592   -3.22371042376665    6.79277002266130
H         1.48002743253658   -3.52860186704756    6.17914435312999
H         2.03828065916554   -1.87391629382847    6.40724560285588
C         6.17179080941939   -3.25791762112642    2.88284816967582
H         6.80395266896948   -2.78871057406760    3.63500454924916
H         6.46757864814249   -2.89946943078108    1.89987939528976
H         6.35566589282756   -4.33229877550053    2.92078805511181
C         1.58173581341816   -2.08501670637689    1.21621992676087
H         2.08048684288851   -2.17476668027484    0.25426059507147
H         1.27654097857146   -1.04825063008655    1.35893597280961
H         0.68511878839338   -2.70279628843326    1.21042588072813
C         2.44459705350501    4.65048036460494    2.76935781097976
C         2.34712495087022    5.20667067226262    1.36906435448917
C         3.19373073573741    4.68643320566183    0.39484959041483
C         3.14499517044362    5.21156844404490   -0.89057409506024
H         3.80212622093706    4.81364980982316   -1.65106367773260
C         2.25951840834827    6.23159682641225   -1.19410690137088
H         2.22859780170255    6.63681878903850   -2.19571980543250
C         1.40638942393760    6.72858230138994   -0.22432648441962
H         0.70562234608134    7.51625648103855   -0.46439652462609
C         1.44150517658513    6.21743643388077    1.06766419764373
C         4.13661754440232    3.59881104357440    0.75300106372920
C         3.75700766804768    2.26272451070649    0.64041942709546
C         4.67060417985015    1.27180835460337    0.96982193769039
H         4.36923384083483    0.23663831293845    0.89608290948966
C         5.95350453304236    1.58073320008688    1.39131974309706
C         6.30327213152694    2.91608919854548    1.52868788739605
H         7.29454353348663    3.17336745127001    1.87727970637110
C         5.40671025942999    3.92942016837684    1.22879176430939
C         2.37354801341572    1.87386990178105    0.22015305615265
H         2.39350195393589    0.97007938282679   -0.38583560473297
H         1.88584571646227    2.67041794874540   -0.33639133091420
H         1.79425044201922    1.67188156251522    1.12059952580761
C         6.94422986366591    0.48746551476576    1.66165540103032
H         6.45455064652961   -0.36102610783632    2.13287012986139
H         7.74887210252982    0.83752451449592    2.30384501207644
H         7.38463360706341    0.14679146583559    0.72326652456571
C         5.77424650156674    5.36759403555873    1.43807633208498
H         5.60582194613478    5.94999462179936    0.53323197179689
H         6.81727656936713    5.46384116500809    1.73062500866666
H         5.14821718643608    5.78856725337424    2.22509568174734
C         0.49829250508968    6.69558108824796    2.10660212370650
C         0.85246481755838    7.73604544681362    2.96514782427853
C        -0.06238894175927    8.16613367910256    3.91380543036424
H         0.20634760697048    8.97734949771206    4.57699561631643
C        -1.31830518837424    7.58507755261035    4.02734577857268
C        -1.64343416824492    6.53622066491114    3.18038447929274
H        -2.61733029088100    6.07055211621040    3.25981494117517
C        -0.74851720011448    6.08136190286514    2.22193229979165
C         2.21834989291857    8.33971997790259    2.87942978962755
H         2.29788526432957    9.22229151172107    3.50942200276855
H         2.46284015614518    8.60831682846214    1.85300430324241
H         2.94374610580680    7.59754812550260    3.21433109943814
C        -2.30153964222235    8.09962460188211    5.03842242014260
H        -2.63561471172237    9.09912034572144    4.75859630205638
H        -1.84626465059974    8.16890847598095    6.02606910448524
H        -3.17466446299996    7.45388331440848    5.10066274037046
C        -1.09581045785902    4.93066822012118    1.32532707941124
H        -0.38704131684725    4.11683865510791    1.47905115143948
H        -1.03277550321484    5.22671054745118    0.27872951457816
H        -2.10289247270609    4.57035276352386    1.52489626898424
C         4.60174136754930    3.03926093888849    4.70530587272923
H         4.16088938741030    4.02555718700274    4.65641161092994
C         5.96666116887535    2.88465959872104    4.86247968917496
H         6.59189748605020    3.75859461612410    4.95131870882299
C         6.50432505912653    1.60861227427684    4.90812612511754
H         7.56324364670906    1.45204147817864    5.04724003728085
C         5.63487022771753    0.53950048810862    4.76116999149677
H         5.98893682115022   -0.47883678299635    4.77661733526661
C         4.28612809586624    0.78343094277735    4.59141772720163
H         3.60997679960060   -0.04683366854870    4.46275764636745
C         2.32785131776611    3.39489613249663    6.95485072372847
H         2.88573485396951    2.47976700396145    7.08117608039537
C         2.21971740982260    4.31527555200339    7.97759213541227
H         2.70654121602360    4.12815139316044    8.92197086176824
C         1.49444391955591    5.47906110441592    7.76516484713422
H         1.41172090141874    6.23102065214850    8.53462731279500
C         0.87943730528743    5.64427602646061    6.53246562474119
H         0.30731739845958    6.52850237484421    6.30383743690988
C         1.01994867053987    4.66130078104638    5.57482197732876
H         0.55474098259869    4.77131077034940    4.60675526202021

