139
CSD_code = QANMIB | q = 0 | S = 0 | Stoichiometry = C64H68FeN2O4 | MND = 6
Fe        2.80649237764415    3.01032574270578   17.58537265625805
N         3.44328042625028    4.35232396968343   16.38250348152170
O         3.08383595622188    1.53121595537908   16.15389013994298
O         1.23306831626072    2.65956478321040   16.24900136535838
C         1.91366026992932    1.73327905068645   15.74241101485216
C         1.34617933486226    0.89316232636458   14.65017974760908
C         2.09310843274784    0.67093285082048   13.49332284767917
C         1.56144628633330   -0.12140898688163   12.48294315556119
H         2.13245720389374   -0.27649513070981   11.57822401155592
C         0.31308075357936   -0.69934516751697   12.62897554743098
H        -0.08647836406820   -1.32629917449583   11.84461755496875
C        -0.42781552079310   -0.46676185977849   13.77320940762296
H        -1.40312591761941   -0.91718320490033   13.89158414132599
C         0.07148681909745    0.34270566391822   14.78756950127156
C         3.41424398622010    1.30978129069518   13.29822689778846
C         3.48273548883064    2.65552409871036   12.93923529744713
C         4.72146639848693    3.22382317290147   12.68280483544493
H         4.77194074687893    4.26290821045275   12.38818729174129
C         5.89048860760627    2.48652085609846   12.78588162094983
C         5.80323129415811    1.15404119631453   13.16388891438817
H         6.70743930729202    0.56653952166133   13.24828285500593
C         4.58098162968654    0.55449569483098   13.42055340690952
C         2.23121323771874    3.47452568619722   12.82353345723765
H         1.77732185792860    3.60617200367202   13.80580944610709
H         1.50239504918890    2.97828993361590   12.18305213450421
H         2.45188908627512    4.45746839541153   12.41310763435901
C         7.22485166661686    3.11504502483159   12.51198644850431
H         7.87707007288806    2.42347930429898   11.98186225698088
H         7.71474689169897    3.38360974862855   13.44869576698462
H         7.11347187502521    4.01793284057398   11.91609380297253
C         4.50049446489219   -0.87813239355492   13.85246633012772
H         3.89518401742265   -1.46198397294599   13.16040054925747
H         4.02963927139835   -0.93144312160157   14.83287033374113
H         5.49089728932589   -1.32426019301998   13.90835899566162
C        -0.75738968611815    0.59699190630416   15.98748470464054
C        -0.47084232077160   -0.02382145472528   17.20242291376659
C        -1.31353797847956    0.18987189639008   18.28342926948800
H        -1.08908083992939   -0.29102184181707   19.22386251926338
C        -2.42603768291575    1.01030460248149   18.18632137525981
C        -2.67802120114880    1.64403906087940   16.97880209139172
H        -3.52996774619151    2.30489328991038   16.89165524087958
C        -1.85744692012727    1.45072526967289   15.87919197451851
C         0.74474972921157   -0.88241574282527   17.37356836394558
H         0.54994536915370   -1.68999732689842   18.07689275686996
H         1.55048599619128   -0.26586274905131   17.77549839034806
H         1.07472119841471   -1.30731931664665   16.42802067096216
C        -3.33402367468276    1.20002193616510   19.36504281295070
H        -3.98366064814164    2.06086468724242   19.22341150756060
H        -2.75320725404470    1.33974729995634   20.27396394438957
H        -3.96302571137094    0.31953904655876   19.50119564617214
C        -2.12189191902931    2.18248120396616   14.59624732121088
H        -2.38621065915659    1.49182863115390   13.79648937820978
H        -1.22634212052454    2.72045682350410   14.28801924005252
H        -2.93489150328607    2.89409949099029   14.72078321125316
C         4.68914017007997    4.38311334111865   15.88857039716487
C         5.09818334247436    5.41254614870129   15.04806629697419
H         6.11198669427922    5.41780226863499   14.67918840172915
C         4.21617819078166    6.41166238639013   14.68394757914813
H         4.52528079567994    7.21365215827948   14.02964822113079
C         2.91080403363298    6.35959264644205   15.16843705004704
C         2.59073839181387    5.31306437839770   16.01283229429298
H         1.59172642460201    5.21797118373875   16.41200201651965
C         5.61031468462736    3.27737960076862   16.25370827640976
H         6.60443149012368    3.44182760929037   15.85199516830231
H         5.21116651179717    2.34173238979014   15.86781314182174
H         5.66112496100592    3.16487154574400   17.33300751278938
C         1.89725610280302    7.39412847987316   14.79061740534989
H         1.72911391973474    7.38308355614290   13.71444396325523
H         2.24953185948595    8.38831925661524   15.06205225383523
H         0.95187518468561    7.20705298771890   15.29204660147308
N         2.16971858222066    4.35240543990770   18.78821660617030
C         0.92386808647805    4.38314100699579   19.28217231268687
C         0.51479157190571    5.41255835827527   20.12268260415719
H        -0.49900764785501    5.41777308801690   20.49157147091320
C         1.39676845194986    6.41169223584194   20.48681059674144
H         1.08765811341220    7.21364697787641   21.14115034742501
C         2.70213556559605    6.35968528241038   20.00229223159910
C         3.02222051463731    5.31319630663563   19.15785122012609
H         4.02121682840638    5.21818723430954   18.75861978322907
C         3.71563090817035    7.39425012784723   20.38017760826082
H         3.88369871785436    7.38319127056799   21.45636345240016
H         3.36333670973364    8.38843502577870   20.10874285350519
H         4.66105327985618    7.20722257842534   19.87881029454953
C         0.00271963687591    3.27737504311740   18.91707004114103
H        -0.99137969654485    3.44178907121915   19.31884029845497
H         0.40191924975901    2.34174509539499   19.30295204357023
H        -0.04814368004245    3.16485828081328   17.83777414288060
O         2.52914214250194    1.53128889354126   19.01687100613871
C         3.69934315372172    1.73330367571636   19.42830463037196
O         4.37990496355528    2.65961815283686   18.92171848313881
C         4.26685557895862    0.89318592825742   20.52051047506201
C         3.51995520383246    0.67096405885943   21.67739054052288
C         4.05164821705688   -0.12135574242828   22.68776765137130
H         3.48067101403389   -0.27642900261486   23.59251040316455
C         5.30002076328065   -0.69927699826481   22.54171479127849
H         5.69963772718550   -1.32615548085612   23.32610396971763
C         6.04088779324439   -0.46669809734289   21.39746320180073
H         7.01621698835284   -0.91707657326758   21.27908021715333
C         5.54154775383260    0.34274004267968   20.38309537710920
C         6.37038271989518    0.59698869351765   19.18314598300147
C         6.08377575368169   -0.02382005810189   17.96821866780166
C         6.92641086760519    0.18988346344103   16.88716800995314
H         6.70187125106422   -0.29095680358653   15.94672711202935
C         8.03897276845319    1.01023811530370   16.98424789698677
C         8.29104190651213    1.64392675168583   18.19177338134993
H         9.14304912307684    2.30470527311383   18.27890752309964
C         7.47047543024732    1.45068176595230   19.29140004007232
C         7.73496870198805    2.18246878223275   20.57431627490199
H         7.99939483114986    1.49184913524329   21.37406686877794
H         6.83940704114897    2.72039187351769   20.88260094383208
H         8.54791238532574    2.89413773122743   20.44970611062402
C         8.94692312444146    1.19992349809286   15.80549881907172
H         9.59698148540592    2.06040909673973   15.94735338082918
H         8.36608174126680    1.34023519629257   14.89668437005245
H         9.57548647941966    0.31918755480312   15.66897437657256
C         4.86821909668789   -0.88248469184446   17.79715497956020
H         5.06305064308811   -1.69008183067938   17.09385432824352
H         4.06241723990719   -0.26601103764273   17.39524160846916
H         4.53832998895247   -1.30737997868493   18.74273604526133
C         2.19881302139943    1.30980098726941   21.87248322967217
C         2.13031706379518    2.65553701962412   22.23149148458664
C         0.89158215695369    3.22382682234653   22.48792869323109
H         0.84110141283926    4.26290887962033   22.78255573957987
C        -0.27743789685494    2.48652905336211   22.38481094779507
C        -0.19017730871919    1.15406273127368   22.00675114343858
H        -1.09438833404058    0.56657080430641   21.92232112512126
C         1.03207610268178    0.55452098798967   21.75010326392288
C         1.11257998231952   -0.87809440883988   21.31815324622674
H         1.71784817431679   -1.46197262509483   22.01023456229483
H         1.58349098828461   -0.93137168201161   20.33777473089101
H         0.12217827668085   -1.32421487485298   21.26218555429937
C        -1.61180921161895    3.11503228978845   22.65871442397723
H        -2.26388803133506    2.42357475323375   23.18915314963779
H        -2.10187550115020    3.38326195065875   21.72199997287971
H        -1.50041011219070    4.01810836867529   23.25431682967240
C         3.38183164191699    3.47455398942154   22.34715945822389
H         3.83570091676243    3.60618932005836   21.36487054473261
H         4.11067052648747    2.97833957151693   22.98763258355341
H         3.16115126166405    4.45750148343636   22.75757117879485

