71
CSD_code = QANMUQ | q = 0 | S = 0 | Stoichiometry = C28H39AuN2O | MND = 2
Au        7.12136095008572    7.10065640472826    0.72111582230146
C         6.53668684087957    8.01149306213698    4.79479394564504
N         6.89791113694468    8.09760993675742    3.36304890758304
C         4.43052895821459    5.93565361725484    3.12450876846218
H         3.98975292204997    6.93647987321190    3.20642163722704
C         6.61899338283779    7.06097599554198    2.62694852881040
C         6.50373743174802    4.58558741406054    3.30542375696657
H         7.57851711497461    4.60360530389702    3.52560062644374
O         8.37004674612798    7.14641395278183   -3.35311990577688
C         5.93803789962612    6.01131387996216    3.48091976977616
C         5.22918934481581   10.12070551465064    2.01147829566209
H         4.89576590942609    9.16234151677968    2.41667033680693
N         7.64392798742451    7.20085657740935   -1.12107719693882
C         3.69749644646765    4.98218213453881    4.07227173631813
H         3.73716156951352    5.32772281787048    5.10641302868958
H         2.64315381126879    4.94935501876576    3.78765854273030
C         4.80322417793753    4.00821735273066    1.56830534761798
H         4.66224171900453    3.65501374713948    0.54194499479936
C         6.70335905199990   10.29752839507843    2.29792551138777
C         5.79606934605563    3.63948651556513    4.28219007526237
H         6.22742637130452    2.64084839496280    4.18453611908482
H         5.94209857886848    3.95917587057524    5.31537451120884
C         8.90282709888362    9.40171700881430    2.84810586178006
C         6.18693628853202    6.52708070464100    4.92061401157648
H         5.33435484084249    6.38875280988850    5.57747621378179
H         7.03509750625942    5.98963593202071    5.34865449699580
C         4.22419873732488    5.41512906428103    1.70034378150600
H         3.15336787693178    5.39583086818783    1.48296804104190
H         4.70056026517559    6.07840448876842    0.97624415972113
C         6.29294650672666    4.03945035324976    1.89407392304827
H         6.70546757357896    3.02930314115224    1.84084632555512
H         6.82077268247490    4.65329440135721    1.16233301792917
C         7.50586256179937    9.27936459767357    2.83229988174990
C        10.87633434792825    8.60911189251052    4.22411019580241
H        10.42810503209983    9.07714036931897    5.09703310670812
H        11.61163825848440    9.29541099420804    3.81316989071994
H        11.40175476086854    7.71174194230631    4.54387846593003
C         9.82316938565030    8.24657319417561    3.17239329863238
H         9.23031079648093    7.40387493790058    3.53937557395990
C         4.09742008168834    3.06451024174672    2.54066831855060
H         3.03052789550376    3.01460165806052    2.31173738841724
H         4.50700612227061    2.05659859415441    2.44650517672973
C         4.30193483958998    3.58382715296600    3.96206817639771
H         3.80393221051711    2.91546278191479    4.67365713171989
C         5.34815268934284    8.91722568944182    5.11846312113898
H         5.61201363104701    9.95597255959591    4.93915112733322
H         5.08860529359094    8.80782083775878    6.16898435667821
H         4.47389186541273    8.66436819823934    4.52579199317069
C         9.46582124864026   10.60628735803413    2.44830375741345
H        10.53784129610457   10.72095143737864    2.46288190200313
C         8.67857810166632   11.65563763502581    2.01983530956259
H         9.13235421077665   12.59099680559650    1.72922279815731
C         7.69440385514800    8.41408472420705    5.70385949595747
H         8.01514065544722    9.43072131821090    5.48742736023621
H         8.54034295266493    7.74313478705329    5.59215151757832
H         7.36417666581921    8.37124370252388    6.73934895638182
C         8.01068300595207    7.16460816232190   -2.23685621654175
C         7.31366052772692   11.48443039143799    1.91307229560761
H         6.71090422344153   12.28310299166640    1.51102319086646
C         5.02010323985847   10.07186813047118    0.49357999615929
H         5.62443890325315    9.28234423822753    0.04938911484759
H         5.30070608434729   11.01531337650441    0.03306254833739
H         3.97399189696428    9.87506277374773    0.26953732640071
C         4.36812763247922   11.23652238045742    2.60982384325027
H         4.56313666867205   11.37193274496533    3.67079467186719
H         3.31507270280410   10.99504361333876    2.48351490200308
H         4.55638324460461   12.18204768791528    2.10866229162999
C        10.51982432227825    7.78932474581196    1.88587580914379
H        11.14855579554478    6.92564950836028    2.09077052332832
H        11.14259098240407    8.58247265191624    1.48078057293770
H         9.78558493682017    7.51299112409417    1.13043783623008

