71
CSD_code = QANNIF | q = 0 | S = 0 | Stoichiometry = C28H39CuN2S | MND = 2
Cu        9.39946147016920    5.43654195462958    9.11669931813556
S         6.73425245461527    5.33154434650283    5.45520139351469
N         9.57538675136562    4.53633879506930   11.75257498946542
C        14.00438268235499    5.97128173750000   11.21096645455217
H        14.16036093034464    5.45150201761815   12.15793726018699
H        14.86163691480295    5.75241814140774   10.57065552334646
N         8.48316832201228    5.49895152657196    7.57240849835995
C        10.27701781239436    2.93117586171330   13.52184974012353
H         9.27075959402411    2.52326747672088   13.58626799154563
H        10.73292630306192    2.87866957100943   14.50789193880726
H        10.86454070176952    2.31813517895854   12.84547802337497
C         7.72684915416611    5.42202017497859    6.67023003991699
C         8.29465369331520    3.94743985669315   11.50458356613432
C        10.20944512980739    5.23293514032223   10.85021994088747
C        10.23791990630974    4.38759728931989   13.06627267284415
C        11.51355021464079    5.73649742674582   11.44009813654123
C         7.12793681843312    4.68775459287337   11.73737403463368
C         9.44114943984666    1.91349467887402   10.46971735587856
H        10.34289844131840    2.47349103940023   10.73204604280704
C         8.22729638590731    2.64088746373494   11.00157722130378
C        13.91771252990782    7.47769351590114   11.45449752758630
H        14.83033483351533    7.81730030350961   11.95710860572951
C         9.35565198020880    1.88226401581334    8.93959188077331
H         9.28306725527893    2.89410510266835    8.54197248756293
H         8.48125835982489    1.32610336258695    8.61201544790481
H        10.24342236405116    1.41022606645880    8.52462801385996
C         6.98007418571019    2.04347045197815   10.87861234260760
H         6.90885851225630    1.03599780586631   10.50109952700475
C        12.70899756625505    7.78499112066324   12.33594847005036
H        12.61936319904419    8.86509093256375   12.47325574280859
H        12.84793386676070    7.34653731267258   13.32542446714169
C         5.90321301881962    4.04647186698510   11.60187808328908
H         4.99408826815826    4.59613105073440   11.78677144609350
C        11.43517650893901    7.26863906946924   11.66253958484619
H        10.57167731003734    7.49530189688522   12.29893486023643
C        12.72786187841769    5.48157183433574   10.52124156018902
H        12.80468951470018    4.40436663570945   10.32916311373057
C         7.14333907155794    6.17741099094217   11.99455057756624
H         8.17417491066977    6.50758751784277   12.14177651325993
C        11.63263449927943    4.94404490409693   12.76509071687653
H        12.33348891287190    4.11919819987073   12.62922767069031
H        11.98656493541548    5.55509262873812   13.58953404368317
C         9.50989644584483    5.20103215151781   14.13731371087300
H         8.49079047665192    4.84152675279877   14.25184503121304
H         9.48848843211701    6.25898648872053   13.89209733527369
H        10.02243432227892    5.08336444742466   15.08927403133342
C         5.82711257221507    2.72425200787157   11.21417499645199
H         4.86661561855747    2.23936818078204   11.12737044060681
C        11.28226404136341    8.00475055421735   10.32946907617971
H        11.20783649723111    9.07780209925896   10.52125069314805
H        10.36678834669371    7.69071333267932    9.82295207076080
C        12.48815431826681    7.72003629797558    9.43657800098242
H        12.36133964977760    8.23917949702145    8.48122976488835
C         6.31754721645087    6.58368749807125   13.21719454776317
H         6.60961165014277    6.02215397148884   14.10141621459060
H         5.25795077190644    6.41706642559891   13.04429138366902
H         6.46046845533156    7.64251173906503   13.42104392297572
C         6.61196535318828    6.89101157313899   10.74607550649080
H         7.19657016071004    6.61186642571124    9.87016278026002
H         6.67675814100108    7.96905375650960   10.87581339435320
H         5.57472723330457    6.62594193893566   10.55913521681002
C         9.56799291633575    0.48929082543640   11.01633902808317
H         9.49413979456595    0.47174550436695   12.10113185447569
H        10.52880156117729    0.06833848020316   10.72790068907175
H         8.78984586398261   -0.15243524420219   10.61258190455594
C        12.59286263473890    6.21820437491508    9.18881976937202
H        13.46728634424582    6.00240184209023    8.57095648439712
H        11.70914736864015    5.86863402894477    8.64913456055009
C        13.76407090276712    8.20697129313964   10.12169875971168
H        14.62857802291528    8.00934126442633    9.48447641158613
H        13.71267828527675    9.28486163494938   10.29045959371743

