65
CSD_code = QANQAA | q = 1 | S = 0 | Stoichiometry = C25H37AuOP(1+) | MND = 2
Au        5.60696788221865    8.42206578810994    2.30233799210471
C         2.19957549567304    9.34630281201087    2.55101032223649
C         0.82499993334256    9.09927557260252    2.56315912116839
H         0.46439018981565    8.08595772243628    2.50554746452383
C        -0.09220526595905   10.12792960660465    2.64399496019136
H        -1.14853274027587    9.90674486928908    2.64564542655099
C         0.34954250244284   11.43764702654010    2.73111462094896
H        -0.35732938171179   12.24887309553909    2.80827625426640
C         1.70501102966408   11.69962138278548    2.70799462289342
H         2.06050905976048   12.71864395060369    2.75753388802011
C         2.64173956484352   10.67269884453366    2.60499303524849
C         4.05353603301679   11.10626945652199    2.51398460559176
C         4.71536115003274   11.60307620547689    3.63177108105429
H         4.22826618214232   11.57379275261695    4.59585583561127
C         5.97823519308747   12.15605770541130    3.50877237570104
H         6.47253295671674   12.55902858989382    4.38131422128226
C         6.58730660769897   12.23151105998295    2.26736701679061
H         7.55595347609557   12.69842516915222    2.16554296778687
C         5.93612456996034   11.73901967061936    1.14907889620685
H         6.39857097717692   11.81083649871919    0.17619702810081
C         4.67727467179607   11.17814837929478    1.27037246248626
H         4.15131259715175   10.82818203055789    0.39389824124828
C         2.83282969470304    6.79078551345451    1.15643594449556
C         1.65503894352920    5.85287911332243    1.41043604575255
H         0.73161640846453    6.38045528176746    1.62762472095781
H         1.86793469669684    5.15513669096574    2.21656688562589
H         1.48260000754378    5.26773373892057    0.50772786036482
C         4.05326542118144    5.93046108177889    0.80943279182512
H         4.36477758161042    5.31704109982796    1.65149842806979
H         4.89589170243348    6.54978754633970    0.50310621856935
H         3.80722522842876    5.26584062016086   -0.01661124031472
C         2.53742407347564    7.71897504731198   -0.02464252919748
H         2.44289873173655    7.13800483422782   -0.93994493365412
H         3.35379485803607    8.43120452263420   -0.15872358195957
H         1.61405103470238    8.27531745950884    0.12309787545198
C         3.13140100964068    7.22334525704050    4.27982823758685
C         1.69296457423004    6.94635678391783    4.70681096152424
H         1.19768366577372    6.23574162218034    4.05293955846421
H         1.10948922902781    7.86311708990738    4.74600024885898
H         1.70558185497737    6.51936611893859    5.70873185004880
C         3.96691271695869    5.94782151973238    4.37847802465014
H         4.97422310531457    6.11254208256173    3.99270244249333
H         3.50947671433329    5.13063091370545    3.82609349811774
H         4.04871597210100    5.63987884026365    5.41944427294614
C         3.71690867271810    8.29056746688162    5.21082335095212
H         3.66920761241043    7.95078161073397    6.24347695750488
H         3.15442660106699    9.22012002978854    5.13290556556349
H         4.76013857865056    8.49392419669089    4.96394740179722
C         7.69248749824675    8.74641746146123    2.05738748746628
H         8.31247363946389    7.85392586409100    2.19165410693329
H         7.88810008949884    9.10592910613236    1.04679692419870
C         9.27922198930128   10.20872066047500    5.03797959005961
H         9.94193420127589    9.46187492270889    5.47214919463153
H         8.95542020022199   10.87687199886963    5.83128737447013
C         9.98880089266126   10.96515122027350    3.90976787093516
H         9.57632756899494   11.96720487953649    3.79872202401216
H        11.06069534451070   11.04330577176598    4.06874691816879
C         8.09353193409072    9.53411883027345    4.34027020653543
H         8.07873226929238    8.45445355664953    4.50752823112424
H         7.12742738223936    9.95761397760353    4.62242369255157
C         9.64510761000603   10.12201958018731    2.69731402386580
H         9.71095011107480   10.64987094606447    1.74591224581239
H        10.23762537070884    9.20174556007146    2.65406739697384
O         8.24780903535961    9.80173477254763    2.92260762268152
P         3.37623348867319    7.94961661954366    2.55423579299421

