52
CSD_code = QANQIH | q = 0 | S = 0 | Stoichiometry = C17H21N5NiO8 | MND = 6
Ni        5.77919688016608    5.17025967099070    5.71779080009353
O         7.66943231669434   -0.60262683181253    5.66756395433745
O         5.92073958435893    4.68685666095511    8.14940218032572
H         5.29243958504196    5.29536939214546    8.54967444034987
H         6.78900150860878    5.09826243320593    8.22597929823087
O         3.55637247194268    4.82560142422548    6.80936828973307
H         3.11999902641156    4.56782754148262    5.98935475209575
H         3.71827397242013    4.01832781897212    7.30675775236842
O         4.61207892047633    4.74124744469361    4.24341423422367
O         3.44274131406603    5.64243728576824    2.59801848878468
O         7.48286866566425    6.09809551757970    6.35900097690634
O         8.57980601729022    7.95967163004336    5.85884281251400
O         3.76279046569068   13.21234685612521    5.73697851435725
N         6.20418677681915    1.07965623857565    5.24427380906562
H         5.58648788721890    0.36613750891767    4.87331704620423
N         6.50972008462037    3.35651502347231    5.67736822609495
N         9.53115221920628    1.71591882972042    6.63660300807189
N         8.74546413109079    3.79169343993227    6.57073480823580
H         8.65458556763407    4.81251446296961    6.61217681756358
N         5.22619301922939    6.99545337375710    5.40122287072214
C         5.79401792650239    2.35741036469518    5.24170950922374
H         4.81874684914816    2.56826585420375    4.82397851154233
C         7.75379854941530    2.99359940308922    6.11252623960637
C         8.25881701473515    1.68478066308848    6.15632398132160
C         7.45624072773575    0.58011876577092    5.70838074621231
C         9.78769298201665    2.97093304694642    6.86604887427411
H        10.72077042037948    3.33260248881141    7.24841869605614
C         4.10378330924357    7.04937286724650    4.44979554965766
H         4.17493149213297    7.91817479557195    3.78922678319978
H         3.16116980972855    7.10915148734029    4.99809871320667
C         4.04204255971484    5.72467305508084    3.64572014245073
C         6.45529616087953    7.51632901870986    4.77801024125043
H         6.37312737581909    8.58675281727540    4.56044233916592
H         6.64052072714614    6.98081678925361    3.83898139265288
C         7.63890979754368    7.20892606581961    5.73192079933968
C         4.91471268877451    7.74255922362417    6.64414275019143
H         4.05183761711119    7.25452741925832    7.10546008544874
H         5.77589841847920    7.65507572707272    7.31211560013629
C         4.62573286154885    9.20635281988842    6.41919337109735
C         3.32692396048536    9.66089515334471    6.20883626444358
H         2.49931646042801    8.96721275884612    6.23145241834060
C         3.07368173059943   10.99647353989366    5.98693862533011
H         2.06942267898219   11.35307741400233    5.82363932874080
C         4.11799022014968   11.92389591133312    5.97109412367132
C         5.41620043368430   11.47982344999352    6.20122226334190
H         6.24730653432609   12.16638299845955    6.21232274704364
C         5.65807271238792   10.13552959883904    6.42570933118561
H         6.67316041171248    9.81513445598776    6.61282628655752
C         4.76878433864388   14.19732579925829    5.71046967680606
H         5.50139982401479   14.00221199792404    4.92116439614983
H         4.25630099194882   15.13480119514046    5.50158146005446
H         5.28216199992849   14.27274733251454    6.67420567202409

