47
CSD_code = QANQED | q = 0 | S = 0 | Stoichiometry = C17H17N5NiO7 | MND = 6
Ni       17.49618676408192    5.99580094817720    2.35782288826618
N        19.50971394075667    5.62609648559410    2.67796632368780
C        19.51012374839635    4.93864916745756    3.97183290144853
H        20.44871543073496    5.09256222665959    4.51141892142336
H        19.34886733515215    3.86890425981843    3.81332586493446
C        18.31181134563359    5.39377671260731    4.86695808524286
O        17.28569989484023    5.77360406177025    4.20191762087166
O        18.38083068638835    5.32551703847140    6.06808546031806
C        20.15220010169859    6.93877559617780    2.76320117773223
H        20.42995312388838    7.26993103578780    1.75923971349611
H        21.04301773547932    6.90745224858483    3.39669550945082
C        19.19201047785363    8.05303859015966    3.29017091015361
O        17.95837727628775    7.82695334180635    3.04376194488445
O        19.63424984700042    9.03773025940462    3.82742351771207
C        20.08973801002524    4.80017447604437    1.58894410366053
H        19.91858497089311    5.33484295210483    0.65028357052286
H        19.52965794492287    3.86187911000658    1.55324511047449
C        21.56117455154827    4.54549329271404    1.80177230016229
O        17.78890030206487    6.65183537028595    0.95397050976853
C        22.51460788689777    5.38783375467479    1.24298267702978
H        22.20647654239960    6.21725576463517    0.62362028745911
O        17.24653520096179    4.45188844332446    2.11613254692234
C        23.86354531258389    5.16568160961893    1.45308050902175
H        24.58683875184204    5.83262608666659    1.00766985860415
C        24.29863287617033    4.09640142587381    2.22497770207725
C        25.75427112441750    3.86185897883589    2.47817458277504
H        26.00620012129625    2.81436291859092    2.32538662137692
H        25.99818161461896    4.11452476545011    3.51004612017325
H        26.36871312542879    4.47227955583744    1.82192272652014
C        23.34305847302469    3.24291460468890    2.76618411323956
H        23.66090228892030    2.39519924810884    3.35518393411897
C        21.99481595151224    3.46170654858124    2.55787394672473
H        21.27704400988416    2.77167267025558    2.97595783777152
N        13.36172698524285    5.61974251584044    1.45077145522205
H        12.79500508449294    4.85334962553332    1.10139985611334
C        14.66714809914783    5.42206443955590    1.64762098493866
H        15.09825193407384    4.44902098887958    1.43888139196918
N        15.47455522469773    6.34562433167492    2.09644467267197
C        14.89445769793342    7.55026701465019    2.36056440488554
C        13.52821438145672    7.83641195924930    2.17682896935672
C        12.62943937346680    6.82985233961272    1.67873340703158
O        11.45282885190140    6.85405322481149    1.44617903825134
N        13.29928020895531    9.12163585216527    2.54357242528426
C        14.45123752010930    9.59315275909458    2.92766007795540
H        14.60191280722403   10.59359558516663    3.28024396534591
N        15.45455560084979    8.68164769431547    2.83764977358151
H        16.45004946283441    8.76185812066423    3.06821967937855

