36
CSD_code = QANRUU | q = 0 | S = 0 | Stoichiometry = C12H11N5NiO7 | MND = 6
Ni        2.88144552613872   -0.32841845509726    1.82383586718024
O         4.21274241926114   -2.46568991185715    1.81987799437275
H         4.72940037183864   -2.46593993974838    1.00899994560954
H         3.39938594998041   -2.95772891616778    1.64489387435438
O         1.04130101660589    1.22622927382870    1.54235307705131
H         0.94289663916605    1.47467424413165    2.47626562714950
H         0.33787551262579    0.59338585266186    1.36036767722713
O         2.07048523895837    0.33767045884477    8.23957890841409
O         4.30787174755126    0.91831890369932    2.04088774905947
O         5.66898168866030    2.23355000431276    0.86657482453913
O         1.56657212260111   -1.64472901514195    1.15746270442827
O         0.73621976530057   -2.42505031788723   -0.75782965884544
N         0.79607161368806    1.41775889721663    6.68150707310403
H         0.33302524392599    1.90493709414836    7.44005311035782
N         0.94995211576561    1.11138309476953    4.36075866258877
N         3.37910326878021   -1.00300026994777    5.75318864239945
H         3.91491289050151   -1.41483030593834    6.50200799808157
N         2.66900329075360   -0.50412644767958    3.71891330060236
N         3.18317657548043   -0.08044960566116    0.08561022742875
C         0.43366684262799    1.66599246245528    5.39911666700433
H        -0.35527140324761    2.38886359743790    5.24674344079418
C         1.94440631887863    0.21880925949192    4.61530403351508
C         2.37843134148199   -0.08865774402013    5.90666416635427
C         1.80035221666687    0.51756224253113    7.07557041747552
C         3.51961113492521   -1.21498922596892    4.43317854939691
H         4.23971048743864   -1.88676691570901    4.00350314360350
C         4.77847582086008    1.41629299307292    0.95831467532950
C         4.07947823519356    0.83468967809899   -0.27586979958122
C         4.26856005981354    1.14613652061827   -1.61416477920415
H         5.00092711996717    1.89242199526219   -1.87869954172024
C         3.50075148452474    0.48815732352420   -2.56563625980981
H         3.62558627257464    0.71364193427092   -3.61457282932573
C         2.56666508685305   -0.45735866174646   -2.16284272885913
H         1.94316133833182   -0.98944777204984   -2.86405009576477
C         2.42954582508179   -0.71830970438308   -0.80811650066353
C         1.46881882043564   -1.69698262134998   -0.12055016363391

