36
CSD_code = QANSAB | q = 0 | S = 0 | Stoichiometry = C12H11N5O7Zn | MND = 6
Zn        2.15412166384201    2.22312673043600    2.92659178354010
N         2.12444350111783    4.10360161737286    2.38018172845914
C         2.34089307051141    4.33462929536310    1.09720843935304
C         2.72432527784534    3.06215106453908    0.31897025224111
O         2.73159367123319    2.00808754400371    1.03531073812307
O         3.00737718198265    3.15327938709064   -0.85906765094208
C         1.82342198304108    5.06674606678350    3.23472954156473
C         1.65832447303524    4.56219874824290    4.68049649328148
O         1.80332719694349    3.30113893931746    4.79975020991130
O         1.42799311017933    5.36282766123823    5.56602642414114
C         1.71328685905484    6.38170896141262    2.80632730275457
H         1.46868466333963    7.15239578158248    3.51990154124098
O         0.01905285059329    1.95920371058456    3.25188141522721
H         0.00708267112934    2.50036701185567    4.05376611241534
H        -0.14526308079720    1.05179283211342    3.56115082444844
C         1.92480916968974    6.65218495220600    1.46040244867552
H         1.84088908707774    7.66518857740212    1.09388388304738
O         4.18327368147522    2.31920313798374    4.00695385635616
H         3.69007226343678    2.61258003016087    4.78971020976954
H         4.72815698543347    3.06635598368564    3.74272916687625
C         2.25040784325571    5.62199948667080    0.58739636639013
H         2.43244267409663    5.78965698372483   -0.46208189614575
N         0.25263713696102   -3.07902146459289    4.06780278196277
H        -0.27356876710161   -3.91710342997307    4.28774660771507
C        -0.30370069957231   -1.86203776521583    4.27401757765184
H        -1.30990935681456   -1.84391825105960    4.66817922609606
N         0.26935545811259   -0.73426434797281    4.03720760078184
C         1.53004763934340   -0.82759088961429    3.53596451268420
C         2.16622613039985   -2.04101941556810    3.26996315539635
C         1.53822943688419   -3.30647581346081    3.54146076078529
O         1.96663618549625   -4.42355577937927    3.38027274406778
N         3.38544540634346   -1.70861619697243    2.75058005430227
H         4.08433413908283   -2.36309751811262    2.43206068639748
C         3.44878887683491   -0.36929907686821    2.72303332711472
H         4.27827676243623    0.19378962963130    2.34676959697791
N         2.35858485407988    0.19128581537913    3.19752217735140

