97
CSD_code = QANWUZ | q = 0 | S = 0 | Stoichiometry = C40H51Cl2N2PZr | MND = 5
Zr        3.97360967780164    0.32142958079748    8.70436313053541
Cl        6.13892645055854    0.31618395383369    9.56597871626899
P         4.20683067748235   -2.35189567435610    8.28933824265098
Cl        3.80059509732651    2.64357874638898    8.89398996549177
N         3.21484055143677    0.04713251819384    6.81361189031227
N         2.69877619477200   -0.38940187257210   10.12314627045268
C         3.62902416958670   -2.32010862847367    6.58583019998825
C         4.59475919859004    1.69596375916410    5.67341469648238
C         3.22960353336470   -1.11445978322365    6.10137872130421
C         2.31486099666186    3.09007497638174    4.88666365630924
H         1.44012404553559    3.64880981059814    4.59087757376946
C         2.66561364605852   -2.62513876057910    9.19455793789944
C         2.17284282371407    1.96332477008658    5.68430245108919
C         1.92641119644735    1.30305033259730   11.72984912417713
C         4.69489259609643    2.82135248622398    4.86781909308670
H         5.66621916312329    3.16969589956915    4.55116757897196
C         1.69375533588770   -3.77801934766179    9.08367587363480
H         2.18040924249817   -4.75274666445423    9.04959726903113
H         1.09003971329030   -3.67578259584194    8.17543576298910
C         2.76195013958073    0.21942941939472   11.40495143187183
C         2.75572487450024   -1.24945617510489    4.67018462481012
H         3.15151849333728   -0.46378247202219    4.02465905685915
H         1.66460857092331   -1.18519126217874    4.64744438775649
C         5.83825202207770    0.96659236409393    6.14543952625872
H         5.54843276376921    0.20372327786761    6.90569961165034
C         0.86940633828199   -2.08616605953583   10.63429113127225
H         0.03464367737286   -1.56856795278364   10.15306868783662
H         0.84391236014564   -1.85746588052750   11.70113637287102
C         2.00614113812992    1.85680707873312   13.00024166358462
H         1.35741628932396    2.67608912893899   13.26819304543854
C         3.31775565447056    1.24878867992109    6.05733200024077
C         0.90269447419482    1.82119554319287   10.74337087355082
H         1.13430922673543    1.38833375949576    9.75330718776854
C         3.35333578779061   -3.42671736077958    5.59637326526545
H         2.41219804983945   -3.93281485803881    5.83657342944230
H         4.13477875077846   -4.18592810944433    5.56669704582455
C         0.93725207874398    3.34760394254658   10.63793766737879
H         0.68370982063371    3.81034242179849   11.58803954009784
H         0.21410386250207    3.68709538419250    9.90028184783041
H         1.92533308719024    3.68579552749776   10.33962677306878
C         0.82106086781547    1.54775120885963    6.21465811204235
H         0.95581232435742    0.61966762028332    6.79158579499166
C         6.80417551050890   -5.39300910478123    7.55760910254362
H         7.54228352407114   -5.62865803520411    6.80449817408567
C         4.93521373362815   -4.77553173895759    9.51047466174475
H         4.22403185495591   -4.51543984794165   10.28075361123337
C         4.57249299596610   -1.46207830636730   12.05688666409169
H         4.61267843959736   -1.61401831005253   10.96528810215911
C         3.23308680113352   -2.65344191010713    4.27296137816712
H         4.21615268000402   -2.58500268285920    3.80363764107156
H         2.55573117680448   -3.13737169456351    3.57094897598624
C         2.16272789459920   -1.63683911857471    9.98120088619704
C         6.61198072947430   -6.24950929573821    8.63037056604519
H         7.19450720913218   -7.15552705110056    8.70926807050649
C         3.67374532124648   -0.27975100345049   12.35838198009147
C         5.09695548376840   -3.93242431034988    8.41689540929273
C         2.89217681716001    1.36629517768715   13.93893896746464
H         2.93686758196502    1.80670297490636   14.92392065532072
C         5.68466736054316   -5.93366064992433    9.60971187282778
H         5.54947657238044   -6.59165649999687   10.45624145762314
C        -0.50062950888561    1.37369726155402   11.16883822278505
H        -0.55170299221082    0.29429368737743   11.28084767386295
H        -1.23555801434766    1.68245003006683   10.42826606463500
H        -0.76525741943125    1.82526711518433   12.12253276021493
C         3.71673044143394    0.30616141853708   13.61580532682953
H         4.40199942367303   -0.07353291858439   14.35738557366432
C         3.56284444902041    3.50533319342513    4.46322071949502
H         3.65679397433667    4.37533910348401    3.83074329802993
C         6.00710239844086   -1.23488488164361   12.53918965705775
H         6.37453202990697   -0.26991947097036   12.20142119739777
H         6.65395108829695   -2.00763726467062   12.12953644036166
H         6.07393717794702   -1.27649979521919   13.62361698458711
C         6.05903630955996   -4.23386806088989    7.45628795595464
H         6.21962762268848   -3.54671542146255    6.63568504088185
C         0.82117623081428   -3.59182074582464   10.33583264537758
H        -0.19641682443332   -3.95003224595548   10.18753304000325
H         1.25646694686624   -4.14778251558611   11.16814754411882
C         4.00173020571856   -2.72593895773082   12.70808272919036
H         3.89298116116820   -2.58044253354484   13.78120956793276
H         4.67126361156950   -3.56697231095524   12.54053587387576
H         3.02626771488518   -2.96603910981469   12.29423436045424
C         6.51044962995900    0.23109417851370    4.98159112747748
H         5.83053952003222   -0.50306480872684    4.55355553097082
H         7.40322534598916   -0.28375668581095    5.33001594636548
H         6.79663563690511    0.93269813682678    4.20082717503377
C         6.80972103374166    1.94154089678163    6.81952514370636
H         7.23767759880778    2.63066386569270    6.09480914398379
H         7.62157057379288    1.39146930616506    7.29230672451417
H         6.29130438857831    2.52146900234254    7.58624387730225
C         0.32431003379641    2.63664419313109    7.16858440582510
H         1.11240157717354    2.88247224670853    7.87727166741436
H        -0.55721507069567    2.29832975012883    7.70930522515292
H         0.06548281663433    3.53861202778357    6.61859462844452
C        -0.19401236033034    1.29804430498565    5.09875835418241
H        -0.40116788649531    2.21547864169301    4.55330126006786
H        -1.12933959304072    0.93383934132822    5.51885294414170
H         0.17840407842870    0.56046269994142    4.39152476015807

