114
CSD_code = QANWAG | q = 0 | S = 0 | Stoichiometry = C46H54AgB9N2P2 | MND = 4
Ag        9.70554936514561    0.06508484645844   15.67606113986686
P        11.28346068698926    0.02076764268901   17.68962384397719
P        10.12687017874083    2.55258417667560   16.04205547437764
N         7.68542203438079   -0.82587361141711   14.86042857855769
N        10.05231775879777   -0.78586682850206   13.48844655152747
C        10.94220518395556   -1.29376693011885   18.91564641188343
C         9.92656985994888   -2.19043846230577   18.60609550512499
H         9.38239713526696   -2.06422023536993   17.67251863893167
C        13.08428691189479   -0.19505070437314   17.46655134949207
C        11.48365911847546    3.10467446398369   14.93229813848623
C        10.63126254416098    2.86665523494639   17.77680457512844
C         7.69363844751643   -1.18058074758324   13.56339642470076
C         6.54545819838739   -0.82207860015316   15.53268175325492
C         8.93553008819030   -1.15561725619646   12.84192226446614
C         6.24569891927668   -1.54879320032235   17.92971159969076
H         5.20922448177306   -1.85829956521880   17.77471666985375
H         6.88319017289043   -2.40942341936215   17.71585036423747
C         8.91948611018087    3.86944658843608   15.67307459941807
C         8.94591377110036   -1.51907499581151   11.47425651790877
C         6.51524690806132   -1.56995068706939   12.88438036440877
C         5.33149597049834   -1.19047556823242   14.93534180714815
H         4.42411888678159   -1.16680644819150   15.51853672203917
C        11.66391671703786   -1.46946802035426   20.09391787789275
H        12.46250111228487   -0.78672730196994   20.33981555767086
C        11.18546036776021    1.63981800376329   18.57575933646526
C        13.79081849598694    0.84453265219238   16.86857522834142
H        13.27148575507022    1.75597076741901   16.61401902658352
C         6.59325751227986   -0.40723917560530   16.96910865725473
H         5.89602974637501    0.41850783645499   17.13398973761145
H         7.61011657807183   -0.05148592580234   17.18864354529006
C        12.68813098293090    3.68853205806121   15.30455912574645
H        12.88162044785180    3.92814834561693   16.33898499186283
C         7.57151946063882    3.55519132058539   15.82208824945247
H         7.29695691416875    2.55704349100252   16.14253808876395
C        11.30644001829256   -1.09097654280146   11.48841522785864
H        12.26777439059422   -1.04370833645265   11.00037829014878
C        15.80533044605986   -0.44920442812325   16.91715620530979
H        16.86215410458081   -0.54680252269422   16.71637171954204
C         6.43784045719878   -1.12052238149769   19.38304965332031
H         5.83673851746991   -0.23001405964717   19.57885700393683
H         7.48408466808470   -0.85489201062517   19.54777755657041
C        15.13906010626360    0.72287377615693   16.59737625294801
H        15.67131208648937    1.54285402665324   16.13744463538433
C        13.75343206401007   -1.38122763266463   17.75242264816799
H        13.22018194894809   -2.21534297840418   18.18568007711405
C        11.20694300033441   -0.75925318300147   12.84823687493144
C        15.10681485426960   -1.49864208355279   17.49104075474320
H        15.62148505355906   -2.41662177025123   17.73883719040064
C        12.47230545451453   -2.70946903123509   14.70923823736995
H        11.64946083601889   -3.07200024274160   14.08861562885314
H        12.03665090006398   -2.24680712943305   15.60118721794830
C        10.18159832753379   -1.46848337416545   10.80201656079895
H        10.22601466828438   -1.72955327922070    9.75436271914767
C        10.33511908967787   -3.39798929531582   20.63186753415616
H        10.10102427472904   -4.21320026345935   21.30072334081519
C         9.62289356935468   -3.23873722109122   19.45599305326391
H         8.83831746176245   -3.93606453500687   19.19868127108078
C         6.56887457524493   -1.93403498012828   11.51505148838460
H         5.65078403533942   -2.22810717865682   11.02782988852176
C        11.35593464360835   -2.51353754529166   20.94570643680021
H        11.91629775843798   -2.64078144450039   21.86027260440931
C         7.74361702469975   -1.90869781816965   10.83261529627802
H         7.78488069205099   -2.18238639172358    9.78847908912699
C         5.31391024467354   -1.56878971400385   13.61771536782931
H         4.39415606329067   -1.85874488014868   13.13077863075054
C         6.59746479312392    4.50099972647299   15.56987450441209
H         5.55343421867839    4.25137827763558   15.69483600177713
C        12.42900538768678   -0.40900475717501   13.63619179078444
H        12.11910921803899    0.05357255609504   14.58070528219951
H        13.03570017280459    0.31041784901367   13.08282147120993
C        13.26695918520547   -1.65641286398739   13.94242967484700
H        13.63518439966113   -2.08931640754525   13.00883885165662
H        14.13061480531067   -1.35361104641244   14.53758179332505
C        11.25435729482004    2.83969269164620   13.58267230040268
H        10.31538657450181    2.38021466802027   13.29146245763707
C        13.63898103682951    3.99570863211986   14.34461551872399
H        14.57121181210599    4.45118906697095   14.64615791719651
C         9.27760182229116    5.14199874285209   15.24290696470247
H        10.31915470315861    5.39528987498622   15.11178791876032
B        12.25684101007294    2.03197844909753   19.71387798924058
C         6.96161440246710    5.77163508378266   15.15316009952972
H         6.20256091780803    6.51409927593558   14.95506354306277
B        10.60201944427386    1.65579421828414   20.25866722187686
H        10.38776859515241    0.64373138656239   20.82097370213111
C         6.03828518114922   -2.22248531077694   20.35563432530034
H         6.64039600850430   -3.11309000721007   20.19295439992494
H         4.99059934028271   -2.48821505101494   20.22847349073058
H         6.18772856177422   -1.89343837923788   21.38054031588279
B         9.56193829107850    2.12684332898503   18.93705640045764
H         8.68917825811889    1.43867929922756   18.52382032264326
B         9.56261618535095    3.86531163397401   18.80454021687670
H         8.63159280511545    4.41450362219001   18.33647696040262
C         8.30002747291402    6.08637754999787   14.98743186747967
H         8.58438414053822    7.07565701484967   14.65929437868016
B        12.48058189091964    3.89860899685564   19.52226834552536
B         9.71552341807259    3.14622492142581   20.38990623525047
H         8.85417495719778    3.26042408900500   21.18594812525172
B        11.47455166217507    3.07560471934504   20.82055606579086
H        11.82087287571296    3.20971752721463   21.93983250787922
B        11.18358916031587    4.30693777830202   18.24607981242630
C        13.40036568107780    3.72963742787990   13.00788872677807
H        14.14577361843973    3.97175469474844   12.26440181105447
B        10.79007376064158    4.50079968226497   19.89875293616667
H        10.70618013972551    5.55750477389606   20.41444209471268
C        13.34879418188171   -3.88324337573928   15.12336087147355
H        13.77192250552981   -4.37246333017949   14.24820254650901
H        12.76928074809114   -4.61596842474192   15.67973746405968
H        14.16554631533400   -3.53887163245167   15.75289069071657
C        12.19805480978570    3.15385494653200   12.62577475490603
H        12.00177727592655    2.94692363414736   11.58301100246803
H        13.19381579729386    1.33276969766573   19.88665176731649
H        13.27262121077689    4.62050967076247   20.03870607219607
H        11.33941095554766    5.15836095148120   17.44249834992646
H        13.05602483867932    3.45145883284853   18.57166496544292

