98
CSD_code = QANYIN | q = 1 | S = 0 | Stoichiometry = C46H48ClN2Ru(1+) | MND = 9
Ru        4.52671004355828    8.42544045785992    2.47624994323351
Cl        4.06402279731102   10.36210531247491    3.72532301281662
N         7.32002370391166    9.68727900249808    2.41261369354240
C         7.37652136181805    9.67999315179254   -0.01665459046671
N         7.11626958927310    8.38986946599311    4.10958228580474
C         7.32707518581376   10.38510030054452   -1.20571832405433
C         7.07984058390997   11.75328012884243   -1.22742868739096
C         6.89217150499681   12.41993588196832   -0.02466751368928
C         6.93691768458305   11.75508771382582    1.19105035268358
C         7.16113280716270   10.37621211282226    1.17799294421425
C         7.64223131735224    8.20603238145220    0.00824194652306
C         7.04269787731853   12.48315178057243   -2.53254430041794
C         6.72579162836395   12.47689254137921    2.48187301253672
C         6.47354153660640    8.81327695380233    2.99874488458800
C         8.47208207057443    9.80524997379792    3.14416353447222
C         8.34492261180772    8.98760182646380    4.21088269042362
C         6.71749677173382    7.38003346063964    5.03348775524385
C         6.06519427452876    7.73482478936190    6.21533475657163
C         5.73201813388580    6.72195237212021    7.10454653566025
C         6.05887807429867    5.39428695921573    6.85904707277365
C         6.75471868644219    5.08246066667228    5.69778176232347
C         7.10221163103154    6.06178135663589    4.77818096436241
C         5.76974654371864    9.16531271944526    6.52692985815861
C         5.70126130507541    4.33041600055011    7.84746389530322
C         7.89595553285814    5.71607201947367    3.55370293882944
C         4.63397573484636    9.67250867357405    1.02927110213154
C         4.27397108684089   10.43730321516828    0.12685882106893
C         3.87053216178050   11.34601869506453   -0.80311519175509
C         3.76960619061412   12.73815032060278   -0.41855166873445
C         3.62113323556536   13.07761997680961    0.93363212979044
C         3.54794287677448   14.40008097463988    1.31716772723310
C         3.63241446759319   15.40866549585415    0.36734878207768
C         3.79628018355946   15.08570657462255   -0.97196283022902
C         3.86258633636976   13.76486638443503   -1.36724978384324
C         3.52217867630800   10.88164379156291   -2.13415724060020
C         2.50701379345302   11.48786167587010   -2.88157279073927
C         2.19202668413973   11.01424511460716   -4.14063848328993
C         2.88089446456793    9.93682217985291   -4.67619730038222
C         3.87877850548340    9.31709115144189   -3.93710519687977
C         4.19098202812305    9.77627325234111   -2.67418408914481
C         3.07536190579013    7.05766837914344    3.85673833736902
C         4.15187642047148    6.26228362063797    3.47119226131632
C         4.55358412218524    6.17392396727702    2.11283866917228
C         3.77859579389711    6.76615292597203    1.09222015443764
C         2.66882217918972    7.55934199423465    1.48511086647156
C         2.37346096160598    7.75970646128496    2.83579737066162
C         2.58538879437903    7.01312087510167    5.28350013198252
C         1.61988208128475    5.82601404993250    5.40807013253431
C         1.91273799864058    8.30267441842946    5.75042952019768
C         4.02071354720254    6.46940274696784   -0.35669156031340
H         7.49826907487831    9.86639395499596   -2.13775256856530
H         6.71263510674157   13.48481902755191   -0.03044993252904
H         6.81823295701891    7.69392998774840    0.51203229138374
H         8.56214186128280    7.99087613725153    0.55132203993118
H         7.73892074542331    7.81650755380519   -1.00085868850937
H         6.35692377185270   11.99432844389553   -3.22314540707147
H         8.03046886573551   12.47883835697107   -2.99174508492224
H         6.73284198727975   13.51505551189500   -2.39386546637144
H         5.96584372426333   11.96690312160622    3.07343740686063
H         6.40336161251614   13.49707256177344    2.29798996019546
H         7.64317083475413   12.50577599807066    3.06813835620801
H         9.27604151660448   10.44198584451376    2.83836034189649
H         9.01006256222934    8.77585293081918    5.02229685808185
H         5.22157538525571    6.97847238972966    8.02140468053708
H         7.04177816760593    4.05831148096367    5.50886278750687
H         5.25297095249253    9.65241335575841    5.70064839150120
H         6.69818719576951    9.70987413340497    6.69827238218408
H         5.15711193815704    9.24498232353481    7.41993150259557
H         5.66727060432814    3.35133618666384    7.37646117272603
H         4.73916121101453    4.53696986189154    8.31067865027669
H         6.45029707202460    4.29777779842977    8.63857040052291
H         7.56363385225577    6.28552341911762    2.68639348403583
H         8.94859859906904    5.94830943049314    3.71895056720107
H         7.82004681467434    4.65412022770570    3.33456908272938
H         3.55005067381274   12.28997114277347    1.66861788491310
H         3.42309494887258   14.64778076733256    2.36015305381245
H         3.57577431842403   16.44332809478700    0.66933211088977
H         3.87689533923730   15.86995480903669   -1.70964288408320
H         4.02548712645487   13.52263213666743   -2.40670136618401
H         1.94365452858314   12.30441229507381   -2.45503281380800
H         1.40345698418709   11.48529464480770   -4.70733806494470
H         2.63682697995239    9.57614977469786   -5.66346389393881
H         4.41226056845680    8.47482538637860   -4.35178594124878
H         4.97783324624233    9.31590278277923   -2.09398135578125
H         4.65262805638676    5.65102880118483    4.21152074193391
H         5.34755476218339    5.48473523918759    1.84220988488461
H         2.02160546687729    7.97967197050009    0.72105054513989
H         1.50543243350747    8.35265999948196    3.10205417169319
H         3.45066973065629    6.81982190929452    5.92822136826035
H         0.75754800365264    5.96257581059797    4.75785388844627
H         1.26652903958728    5.74738423835795    6.43256715532055
H         2.11154771452451    4.89277108335763    5.13959348778727
H         0.93550658575119    8.43052711070011    5.28952695453718
H         2.52752660167392    9.16979789214031    5.51912613149465
H         1.76730972701982    8.26535086572154    6.82674111858971
H         3.29492861742802    5.72914583548976   -0.69740911173647
H         5.01844194458160    6.06724886655164   -0.51796393373844
H         3.89551670012459    7.36530225884184   -0.96308263522893

