74
CSD_code = QANZOU | q = 1 | S = 0 | Stoichiometry = C34H36IrNOP(1+) | MND = 6
Ir        2.47774666855862    2.20371055839164   -3.38022339050627
P         4.86140624417164    2.07011150681128   -3.66543591728703
O         4.02657121547868    4.41374285736731   -4.20423029256783
N         2.25678341368450    1.92182850950501   -5.37576349006939
C         5.82865115961144    2.40301005103753   -5.18778051265853
C         5.43955932604529    1.76748870932436   -6.36295528448327
C         6.12527064736224    1.98264992395206   -7.54392686436571
C         7.22157035636019    2.82917067253202   -7.56413053471729
C         7.64048000302463    3.43484111011447   -6.39160863875963
C         6.95244593545604    3.22293502736523   -5.20888390473719
C         5.49499677572298    0.38260030496570   -3.34959939854121
C         4.59732843378011   -0.60758902311495   -2.96895366195994
C         5.03115144419627   -1.90426503606390   -2.75724352438633
C         6.36802888267477   -2.22100728112978   -2.93122773044147
C         7.26855525506287   -1.23995663807792   -3.31796878647735
C         6.83672413183273    0.05572621481214   -3.53075840475333
C         5.74444256903667    3.08909520529779   -2.43240465701041
C         6.39151081272594    2.47716807160094   -1.36107054072489
C         7.01928424261243    3.22663195528097   -0.38343906951058
C         7.00232384366132    4.60868633565129   -0.45802296637174
C         6.34202993046992    5.22968730104116   -1.50297674663717
C         5.70269288005506    4.48633504505906   -2.48655511392686
C         5.00776310340661    5.22611296348161   -3.59920013256927
C         3.46355376499143    4.97900054247688   -5.37115636572341
C         2.08816848696560    4.35348723348573   -5.62137516757315
C         2.15271830162875    2.97205329065779   -6.20597995948936
C         2.07959410689089    2.80195249741089   -7.58292912506726
C         2.07484602678950    1.53007247087900   -8.12815979229626
C         2.15302093412983    0.44874702348379   -7.26252693262184
C         2.25741840286526    0.69093706559981   -5.90760504772725
C         0.34025187709238    2.44587271618898   -3.08025493088539
C         0.67557865221648    1.09219121674148   -2.96719288361365
C         0.77504534240834    0.33885340463544   -1.66310116650331
C         1.63910699947245    1.05228956654375   -0.60726814398393
C         2.70857966144606    1.92941269976602   -1.22572221719663
C         2.51748366959016    3.27645676510624   -1.51649288993159
C         1.22764824442435    4.03537214176837   -1.31786454803092
C        -0.00467998053985    3.30908196638757   -1.88518673501991
H         4.60771164911666    1.07899681499580   -6.34444462051962
H         5.80841311264670    1.48216225005569   -8.44702415589347
H         7.75888716525221    3.00013674190036   -8.48424421900972
H         8.51339313772841    4.07082065199424   -6.39364348317229
H         7.31052353915598    3.68202792561936   -4.29870876673598
H         3.55582406546744   -0.34491041753492   -2.83326038799288
H         4.32909020850432   -2.66812742099572   -2.45801696227488
H         6.70960808512367   -3.23170267086776   -2.76909529970498
H         8.31015258831535   -1.48750386672751   -3.45602548555685
H         7.54073392913592    0.81888237283360   -3.83264151969760
H         6.40889582462716    1.39896694321140   -1.29597063935783
H         7.51988026360781    2.73142962287133    0.43395077855827
H         7.49347875311224    5.20214634494605    0.29684863979364
H         6.31725101216461    6.30823967551972   -1.55815820682843
H         4.53936040856385    6.13821967506256   -3.19866694528118
H         5.75140323532585    5.53608462349623   -4.35168995162442
H         4.13322260650315    4.82008807040082   -6.22888285651542
H         3.33501004117074    6.05937316741154   -5.22474726246215
H         1.56926893989810    4.32203040764381   -4.66101951401508
H         1.53597699327870    5.00066232598878   -6.30301961070510
H         2.01086777840566    3.67043334250795   -8.21889039886381
H         2.00485384054445    1.38555092081027   -9.19426364661199
H         2.14461572078631   -0.56478590351983   -7.62884312317241
H         2.35701000220193   -0.13364660852354   -5.21502344680358
H        -0.14651363400382    2.74730390797570   -4.00620764062048
H         0.42144602074018    0.44965866679677   -3.80918978451700
H         1.19922465057080   -0.64528418748751   -1.86886412702722
H        -0.23348346279222    0.17342518005852   -1.27281288122533
H         1.01592178588152    1.66573624119603    0.04324126842795
H         2.11750858336009    0.30043418873939    0.02060511909463
H         3.72755818714612    1.61536599247448   -1.00294483432458
H         3.39560145977920    3.91856193572471   -1.49727070613476
H         1.09190371044982    4.23114414027038   -0.25011722928108
H         1.32852058439719    5.00563952320894   -1.80790208087067
H        -0.74457048594242    4.05311648489797   -2.18246037566645
H        -0.46640206558331    2.68662799070700   -1.11902017428267

