71
CSD_code = QANZIO | q = 1 | S = 0 | Stoichiometry = C33H34IrNOP(1+) | MND = 6
Ir        3.36053102673519   -2.38714277665741   -1.52803385314830
P         2.16718943908523   -2.93504384706233    0.47013284441833
O         5.21175260565441   -3.35966006765507    0.13117909019225
N         3.51450748806385   -4.43237842803062   -1.83587568598484
C         2.24699310494613   -2.10821386904344    2.10781846277067
C         2.21267519367546   -2.84248768769628    3.29270827558238
C         2.21226035594299   -2.19637710227798    4.51568030374130
C         2.24393488916147   -0.81298620977769    4.57556324414882
C         2.27440346140352   -0.07646747040660    3.40358879544975
C         2.27503637398133   -0.71888662301623    2.17806863201160
C         0.35823660128123   -2.96693558235334    0.22415387551016
C        -0.52987903131817   -3.17122741735990    1.27662948624043
C        -1.89170548404989   -3.18994845332677    1.03673524687645
C        -2.37856204436972   -3.00136654638843   -0.24747278893436
C        -1.49961896350554   -2.78950258061210   -1.29690922358458
C        -0.13697899016970   -2.77024425683236   -1.06065903754698
C         2.55241431440003   -4.65946089687066    0.94889252651125
C         1.61564171583382   -5.67836996424857    0.81650486431819
C         1.94348185816159   -6.98543594797337    1.13322715544500
C         3.21615764110910   -7.28960722205506    1.58202622460169
C         4.16552475427310   -6.28647196506262    1.68681607482016
C         3.85429021917431   -4.97486449183330    1.36143640424278
C         4.92190112324846   -3.91101134046175    1.40680692359504
C         5.71184408619550   -4.30359237096010   -0.78781117070562
C         4.61676784061864   -5.09797208287204   -1.46100738357135
C         4.75810436064059   -6.46175488912544   -1.67391574201541
C         3.73430025214900   -7.17104667183378   -2.27660934574771
C         2.58757414332662   -6.48230969326645   -2.64375310638724
C         2.52330179889209   -5.12455739543035   -2.40676885231931
C         2.50152720913409   -0.40415555761947   -1.52206885675638
C         3.85626356323454   -0.32734946223832   -1.18038420472489
C         4.90392011069386    0.21727458758454   -2.12876293331337
C         5.55966942131661   -0.88839008561077   -2.97566353663759
C         4.64989661075265   -2.06748893729980   -3.22179768175800
C         3.33070926213022   -1.97158174424292   -3.66835637477591
C         2.67966003416818   -0.65912894157132   -4.04817948907041
C         1.94274313216360   -0.00176716859628   -2.86847729879297
H         2.19089758526860   -3.92303040192816    3.26459412882025
H         2.18439629281145   -2.77802419514512    5.42467861527779
H         2.24349619070058   -0.31246331632043    5.53120588553063
H         2.29665062836951    1.00192395645855    3.44176283996045
H         2.29497535139036   -0.13170020903892    1.27338544303028
H        -0.15685526913776   -3.31435202557888    2.28052333525836
H        -2.57652995041044   -3.34995816406719    1.85550447540427
H        -3.44228594296095   -3.01455123569908   -0.42784351959340
H        -1.87745266144990   -2.63566040141551   -2.29652949224326
H         0.56012428175273   -2.59056492642826   -1.86928282827887
H         0.61842050467253   -5.44620222015386    0.47166234751174
H         1.20144479235106   -7.76253875710054    1.03434031044397
H         3.47379000333900   -8.30415107366487    1.84254865834313
H         5.16292338461220   -6.52742099633679    2.02580404809140
H         4.60289508980375   -3.06040252101841    2.01581241595411
H         5.84259628943173   -4.32734320465223    1.83765428276668
H         6.41841249470378   -4.98526532883881   -0.29916872736002
H         6.25443975206798   -3.72158317987505   -1.53966551271773
H         5.66406477191865   -6.95759112772381   -1.36352984779493
H         3.82522495574016   -8.23143353470964   -2.44846686532501
H         1.75604492667435   -6.98761134029399   -3.10643084969678
H         1.63980079488121   -4.56578999766739   -2.67956483860588
H         1.76066055135287   -0.29810462869109   -0.72935060861853
H         4.11164880323693   -0.22725496354551   -0.12675596222804
H         4.44345374229677    0.96691162920934   -2.77237368722238
H         5.67928278390407    0.71950346580196   -1.55041501156826
H         5.89110083499523   -0.48090990083605   -3.93575556575646
H         6.44952246648143   -1.24898734092958   -2.45711181846283
H         5.18820675039422   -2.97975515860188   -3.47689333249820
H         2.92432667655517   -2.83823194696283   -4.18591027674025
H         1.96779492884439   -0.83703849710765   -4.85447041510537
H         3.44698089648614    0.00984115906672   -4.43788362316224
H         1.98079801514414    1.08764171683524   -2.95771648472680
H         0.88977980556553   -0.28529017256423   -2.89621938353978

