83
CSD_code = QAPCEP | q = 0 | S = 0 | Stoichiometry = C38H41N2SiTa | MND = 9
Ta        3.70093047415548    0.51255560822736    7.69409979607995
Si        0.46709780087640   -0.18223501511724    6.32033643211955
N         5.61396961671100   -0.18324315850940    7.43791235814710
N         3.64622512385186    1.57589921919932    5.91071125786291
C         3.62897699523255    0.89788464346813   10.01292878751664
C         2.71001614697955   -0.05420263750204   10.61054862740111
C         3.45911671935592   -0.98737489422911   11.28593939414644
C         4.85217376645099   -0.63617718049868   11.17730657815549
C         4.96462562924466    0.51615859141446   10.43982368854280
C         3.28169223139513    2.09188469239738    9.27552464996723
C         1.21556914372866    0.06135675674987   10.58568928849517
C         2.97826055679569   -2.18320133261767   12.03623423484717
C         5.95519609286892   -1.43331620900481   11.78657726686276
C         6.22386983447377    1.28518224547547   10.17226425597711
C         6.01596316675965   -1.47182195430601    7.71177886780879
C         5.27110072889728   -2.49921791965672    8.28080493051810
C         5.89804600896371   -3.71303923939699    8.49235210101852
C         7.23332893947871   -3.91226966366108    8.14833481347441
C         7.98305835713911   -2.89597430253507    7.58738363267936
C         7.37720504202141   -1.66772905495454    7.36816588677303
C         7.83153913955652   -0.40532333756726    6.84781759843199
C         9.04102702519446    0.04635635851420    6.34168806903131
C         9.13429612989705    1.36106451350343    5.92772778034550
C         8.04331821779773    2.22160612406676    6.02472581965221
C         6.82959398689042    1.79643428750504    6.53090795977676
C         6.71825645054002    0.46908953731277    6.93265807665372
C         3.44468888266979    2.91137108797530    5.60589214632661
C         2.97266883856346    3.93209274249289    6.42505446007710
C         2.85498720278311    5.20298052295402    5.89270329998002
C         3.19910482838375    5.47609599529660    4.57188968588368
C         3.67350913445479    4.47470589564787    3.74710772121978
C         3.79562885875652    3.19311831245947    4.26201533864585
C         4.24138921873791    1.94585827683393    3.70413201260892
C         4.71598805140775    1.58238564246530    2.45278187097629
C         5.06828108572496    0.26494421295176    2.23693704027533
C         4.93717837859418   -0.67925358028357    3.25119811341373
C         4.46035802758518   -0.33777212254133    4.50345596418423
C         4.12030109795142    0.99073338038556    4.74289995466475
C         1.96777683288123   -0.89237407028728    7.25691546354443
C         0.05898163423807    1.59586597947839    6.89742792634542
C        -1.05942873466506   -1.28688166543353    6.65824903228011
C         0.80590104808324   -0.15176580184391    4.44086786928215
H         4.23639731532102   -2.35407514463835    8.56890177184205
H         5.34159923729907   -4.52603632822025    8.93624501771836
H         7.68682662417495   -4.87550287948681    8.32991993359050
H         9.02043205742951   -3.04943642893381    7.32990249966691
H         9.88921402139067   -0.61864027250667    6.27420510620118
H        10.06627251697580    1.73266450056515    5.52834327569173
H         8.14930269687459    3.24682772229528    5.70169255614037
H         5.99717804517924    2.48445161443514    6.61437903958949
H         2.70331004410292    3.74447137037089    7.45234090761453
H         2.48690547035416    6.00317767637237    6.51792211439993
H         3.09325947035635    6.48152470299437    4.19275940513300
H         3.94413348901615    4.67990222704342    2.72234147605078
H         4.80703188657799    2.31844023578350    1.66832162908832
H         5.44384527472592   -0.04151628458188    1.27222663033986
H         5.21103708187444   -1.70545548519881    3.05518573841381
H         4.35288262751611   -1.10305839340443    5.26223996221701
H         3.98297823665649    2.91922741421355    9.36890227700797
H         2.25493310067401    2.42747160680672    9.41148038766161
H         0.74580505040218   -0.92060463378955   10.61991834557646
H         0.86710012898955    0.57515263210062    9.69073589386022
H         0.86835506559362    0.62210695327571   11.45682534552282
H         3.16435936056026   -2.06377013057847   13.10447714235734
H         3.51075308685057   -3.07610998575656   11.70757642147719
H         1.91184507146263   -2.33860208917620   11.89279748041438
H         5.78181766081809   -1.57652940118000   12.85327194615947
H         6.91200934412032   -0.93597564579356   11.65341272340323
H         6.01413863483085   -2.41935356638968   11.32259452818366
H         6.57330217790147    1.76388770001612   11.08966677257103
H         6.07372643440154    2.06238736434564    9.42279780275965
H         7.01935539986269    0.62696299823195    9.82053672600429
H         2.35548642788131   -1.73058151991163    6.67184170718090
H         1.63056506391493   -1.31646811424905    8.20371746329257
H        -0.78815224452550    1.98739282474453    6.34231060703789
H         0.89637190844807    2.26650210353704    6.72813860429759
H        -0.20383764124877    1.63944969592585    7.95029264875506
H        -1.92972913753810   -0.91690038284189    6.12627380027282
H        -1.30850724438467   -1.31266550045237    7.71448097499266
H        -0.88984153578314   -2.30934909718566    6.33634104944040
H         1.15711863050702   -1.11355366875991    4.08004955664439
H         1.55828130949083    0.58642344018528    4.18318107269190
H        -0.09642986046903    0.09410868291152    3.88978160675291

