39
CSD_code = QAPDER | q = 0 | S = 0 | Stoichiometry = C19H14CrO5 | MND = 9
Cr        2.58342464925860    1.71133530688384    1.88840922054842
C         2.29392907121534    0.97403848738750    3.53476696563612
O         2.18626174522314    0.50131925054091    4.57765058079583
C         2.35649539546352   -0.01415838167685    1.30339009164647
O         2.24252443604289   -1.11572979288711    0.99599262373485
C         4.28933521211262    1.16660201443319    2.26017125664409
O         5.33457628437902    0.80046383426512    2.56877381136890
C         0.76238917011802    3.09796991706115    1.84940542969862
H        -0.18570484647772    3.07629004153108    2.37470023233451
C         0.89662304389213    2.58791072842550    0.56945146703359
H         0.04389706197044    2.15133001646315    0.06337105072729
C         2.12023533400806    2.74130915374474   -0.13323814938678
H         2.18671689172845    2.41833698151862   -1.16503247833752
C         3.18289807902223    3.39750365957330    0.46420902255434
H         4.09775295532254    3.60857542790963   -0.07815478051692
C         3.09018191182543    3.85481875160912    1.80667345069910
C         4.24669140802455    4.54534436102213    2.39243583189906
O         5.21619776039021    4.82657756267309    1.71310494259920
C         4.21969566347567    4.85487538272947    3.87527999532289
H         4.98412537209806    4.19483108276076    4.30501535671431
C         4.71618451227049    6.31346147753927    4.06977628769488
H         5.62751434478481    6.46027465067457    3.48865911555564
C         3.61154681721305    7.22764296595895    3.64161229926499
H         3.76167072448668    7.94404686598098    2.85133435284206
C         2.48201688632499    7.06471578654154    4.31471644266862
H         1.57873306178687    7.62827434964321    4.15139165050772
C         2.54187211008308    5.99519182507305    5.35999298891022
H         1.59291172426307    5.87144243134376    5.88320580984588
C         2.90232094663128    4.66760497880751    4.64009499405643
H         3.03911581565294    3.90269186881988    5.41544465123797
C         1.67979636919629    4.21000746331833    3.87142680187155
O         0.57584405580820    4.22766168821952    4.38114535254699
C         1.87180592008201    3.69472248309699    2.50727887261219
C         4.97822810565981    6.53690978208045    5.56658178880505
H         5.74715390043026    5.84221112701158    5.90679421099628
H         5.35925113568898    7.54878555230426    5.70791547678390
C         3.67059261428712    6.33502631930520    6.34442338244401
H         3.40070101285619    7.24121833741640    6.88751586783803
H         3.76889334340030    5.52876626089598    7.07241373180128

