36
CSD_code = QAPHAQ | q = 0 | S = 0 | Stoichiometry = C19H14Cl2Zr | MND = 12
Zr       -0.79613738429548    5.14042317344357    3.44968093738655
Cl       -0.43511381981299    6.72988787301014    5.09842680942465
C         0.33217923331911    3.01817214823507    3.12283166099816
C         0.48751049018756    3.68853798202360    1.88250383873110
C         1.31913854621627    4.81545331647784    2.04787592298134
C         1.69444619102606    4.88429053989266    3.42014505699830
C         2.51504901163726    5.77357382394391    4.14399155070330
C         2.66950256902776    5.58389674843398    5.49306473205313
C         2.03569364182631    4.52045549902395    6.16345539005988
C         1.24288657725465    3.62012148267931    5.49761125514041
C         1.06044937058038    3.76855820642341    4.10403068806282
C        -0.79642455283057    2.06110740093570    3.44971627979861
H         0.12103364084728    3.33168874376406    0.92596681295581
H         1.70154141498931    5.44413902281423    1.25365470469365
H         3.01409394763747    6.58606938095659    3.63218036199322
H         3.28966607709384    6.25885531468868    6.06295694283916
H         2.18911364317925    4.41383889389419    7.22686628585856
H         0.80671799899748    2.77826283660733    6.02235525299675
H        -0.55182692299416    1.42435231802681    4.30386591808434
Cl       -1.15929547215756    6.72938785734527    1.80074222960297
C        -1.92504556903587    3.01812090900591    3.77666388025908
C        -2.08032599808541    3.68845407731000    5.01698314702481
C        -2.91173164750722    4.81556800603815    4.85161432060363
H        -1.71373189503495    3.33162140576543    5.97351245031396
C        -3.28716000825178    4.88440917429711    3.47936697854871
C        -2.65325794302147    3.76860328969755    2.79550060818239
C        -4.10780347471161    5.77369126083828    2.75559332746969
C        -4.26235752291819    5.58397761258830    1.40656268075451
C        -3.62860791460215    4.52049715054411    0.73615176639689
C        -2.83577974155195    3.62014927130664    1.40194305911342
H        -2.39979918332562    2.77816183403821    0.87721825630885
H        -3.78221094530806    4.41377992201031   -0.32721140416152
H        -4.88256236500112    6.25891998739649    0.83672077274362
H        -4.60668000370665    6.58629361387984    3.26739506929295
H        -1.04097895511249    1.42440466544510    2.59550649994624
H        -3.29409103455489    5.44427525721806    5.64585595583941

