48
CSD_code = QAPHEU | q = 0 | S = 0 | Stoichiometry = C23H22Cl2Zr | MND = 12
Zr       -0.57864484773697    5.65676841381727    3.43145517175698
Cl       -0.27347663961088    7.25867006317362    5.08860433472613
C         0.57396510076302    3.51862567621309    3.17490395056513
C         0.72524833022310    4.19622383562095    1.93697576639924
C         1.52326642993873    5.34369105259488    2.10945529893045
C         1.88133677241031    5.41603612432814    3.48739807392590
C         2.63651649951736    6.38493201548275    4.19378552163174
C         2.85026851573186    6.16618957729443    5.53054560518446
C         2.37294144224852    5.01043962104047    6.17365860746827
C         1.61508424908598    4.05529869001057    5.53773657631704
C         1.30087263277744    4.26863321222252    4.16531350855485
C        -0.57856366978921    2.56276370337542    3.43145514572083
C         3.11593425631940    7.60655137857558    3.47029929415802
C         1.25097016555227    2.78319119479766    6.25144204979114
H         0.37339665930691    3.84000019175079    0.97531046240114
H         1.89253900592220    5.98268856213088    1.31744708418147
H         3.41179517352871    6.88461676905873    6.10879733486368
H         2.62517081510338    4.86879978330130    7.21473621808147
H        -0.40349385011398    1.92497774872139    4.29900871163794
H         3.63260864083779    8.27884026556863    4.14971386186701
H         2.25921170941853    8.13169927790679    3.03808604731567
H         3.79331023317767    7.33608766706059    2.66030890812957
H         1.75793292404499    2.73997543127087    7.21232985483208
H         1.56230216526736    1.92198028956144    5.66093979985915
H         0.18072489917333    2.70160291567157    6.43623133559232
Cl       -0.88357043977022    7.25984954724667    1.77509172091514
C        -1.73123239424753    3.51848776552375    3.68787947132271
C        -1.88275585480227    4.19606080123100    4.92578074245628
C        -2.68071364102540    5.34353808206283    4.75317947943113
H        -1.53114412654402    3.83977723671505    5.88751120887679
C        -3.03847866976214    5.41593974170168    3.37514966101142
C        -2.45787782741379    4.26855024778798    2.69733404757193
C        -3.79337832162759    6.38491975509224    2.66857464503803
C        -4.00637454231970    6.16647026686213    1.33164231921047
C        -3.52894412019338    5.01071880116886    0.68860350404177
C        -2.77170825464672    4.05527894842500    1.32481593649499
C        -2.40808358565724    2.78285202530011    0.61143247600746
H        -2.91472999134208    2.73978660338110   -0.34962634267210
H        -2.72022431305774    1.92196963798933    1.20200222263469
H        -1.33782274693956    2.70046067829013    0.42706900171472
H        -3.78068077170138    4.86927932627912   -0.35262058254276
H        -4.56735554796037    6.88515058926879    0.75317613228277
C        -4.27326270345652    7.60632952190370    3.39210734728525
H        -4.78949361633117    8.27883502675014    2.71257033164704
H        -3.41688108878687    8.13137117333441    3.82511319484138
H        -4.95119389197916    7.33552595704066    4.20152025894538
H        -0.75352906377163    1.92479081689597    2.56401109352981
H        -3.05018209975743    5.98247398919951    5.54514360606281

