34
CSD_code = QAPJID | q = 0 | S = 0 | Stoichiometry = C17H13ClN2Ru | MND = 8
Ru        6.20157209720874    2.24693371058948   12.87164623335000
Cl        5.32126987792660    4.38396342039157   12.45251942773987
C         5.73126418907103    1.88156248322296    6.74886745306202
C         5.62270899855321    1.84633521999105    5.55310672962977
H         5.52593856893974    1.82028766248560    4.50883268703018
N         6.15289351339269    2.01085276530674   10.93581472511932
C         4.94411274712217    1.74103740775332   10.36598324198179
C         4.77707567487928    1.69226779742759    8.98732169194559
H         3.80721657528517    1.49071922269946    8.56173564578656
C         5.86575344004921    1.92081155740107    8.15290646495509
C         7.10499048332164    2.19959107162335    8.75380662070742
H         7.97277092014143    2.39401237899894    8.14402334482970
C         7.19268774255633    2.23886714861816   10.12308076374775
H         8.13088146194938    2.47820044194612   10.60651157266079
N         4.36994605375608    1.61881342364540   12.62701821519202
C         3.90721439251198    1.51194638301837   11.35174660145433
C         2.57428350813024    1.20465475803944   11.08235749673301
H         2.23565039786372    1.14045212633007   10.06105408048509
C         1.69811461300281    0.99992016546868   12.12769389097765
H         0.66190444317989    0.76592208271255   11.94251994350305
C         2.18064035427801    1.11570558890988   13.43025364782733
H         1.52847343061172    0.97573455777737   14.27720359984306
C         3.50627739203261    1.42946767483241   13.62995700888923
H         3.90189843834894    1.55334941499053   14.62973450191754
C         8.40108081719122    2.35427717026375   13.48459020380506
H         9.26887793099158    2.70099898188043   12.94153234706401
C         7.93571288310428    1.01058225871513   13.54806984134364
H         8.39686411712999    0.15872878113859   13.06558259869053
C         6.92011345586488    0.94666315468036   14.54224761203280
H         6.46819841442721    0.03779207514514   14.91844484980657
C         6.73805291614423    2.24831205534765   15.07386307888321
H         6.15104725422604    2.50722012940697   15.94380213846032
C         7.65828266061111    3.10964581251465   14.41672745025183
H         7.82693023619646    4.15037111672710   14.66224429029461

