52
CSD_code = QAPKOK | q = 0 | S = 0 | Stoichiometry = C20H26O3PReSe | MND = 8
Re        1.00065446759149   19.31299640510522    0.92388170715317
P         0.40163776561098   15.56695892589872    1.23285635130815
C         2.35944446841452   19.56503452566775   -0.44266628492789
Se       -1.59089957243339   15.60291614037199    0.59449057752822
O         3.21462748547517   19.65007115141113   -1.20198408333043
C         2.24615251981063   17.65581913478900    2.13399352666828
H         3.16655611799514   17.18290114034866    1.82198345186195
C         0.93203985927225   17.15648923796244    1.91640156859498
O        -1.24672758451704   18.83670199670720   -1.14421740853862
C         0.02428656065994   18.01677751429073    2.61767902442353
H        -1.03106065057089   17.82079323098075    2.74579093499634
C         0.67286991662339   14.37027662210282    2.63261274411448
H         0.32345979009973   13.40444645108867    2.24241479408721
C         0.77793965782809   19.01534386357461    3.26610865771608
H         0.39648435269297   19.74111608664295    3.96913462642557
C         2.14838044883065   18.81583081680133    2.94279194830294
H         2.98242160427488   19.33740531445414    3.38925886526694
C         0.67709970473894   21.23056321803564    0.97933323997215
C         1.37412225063392   16.05714035067466   -1.30511079448182
H         0.32592569075693   15.98467931193793   -1.60980321009170
H         1.56751038843502   17.09900735582266   -1.02201541680996
C        -0.22493179153734   14.76780882627635    3.80206215784183
H         0.08195971365106   15.74637504442105    4.18602025792920
H        -1.26005811306475   14.84713428286293    3.45833748698994
C         1.60456268729361   15.12616608035212   -0.11808069994573
H         2.62734148641048   15.24755110165170    0.25964137302037
O         0.48754685001851   22.35136057723329    1.11142844937132
C        -0.11952679774155   13.73634981650076    4.91998017537446
H        -0.75404304106548   14.03494205416756    5.75649426480646
H        -0.47697635682051   12.77034494453940    4.55644345320048
C         1.35976956902139   13.67700678062749   -0.53039999138516
H         0.30730981411271   13.56980614245785   -0.81038569367738
H         1.55739669010324   13.00115100689386    0.30624815559507
C         2.24504601129683   13.29313355498838   -1.71285982072774
H         3.29515073578073   13.34903547566467   -1.41232790527568
H         2.03541106473721   12.26182595710226   -2.00287074210796
C         2.00476905709435   14.22922651532088   -2.89240068318572
H         2.65473249191513   13.95358962392814   -3.72469596454768
H         0.96969772296974   14.13273959066584   -3.22590422060503
C         2.12344992068546   14.25512438897113    3.08843026481320
H         2.76915972483632   13.95797434706175    2.25835155073070
H         2.46886809730480   15.22522273540393    3.45826630511183
C         2.23037758087890   13.22435426026091    4.21131058312825
H         1.93456935295499   12.24425087298134    3.82924422992507
H         3.26793268865148   13.15398639266790    4.54507207271516
C        -0.40444564754365   19.05152828129027   -0.40821583007382
C         1.32894532525233   13.60430837780767    5.38219868978846
H         1.40263056788792   12.84827888725166    6.16590939683274
H         1.66368852418341   14.55560024078172    5.80413478612497
C         2.26806185780903   15.67333820402072   -2.47879834866167
H         2.07421191710253   16.34732586553747   -3.31435293853618
H         3.31706705359636   15.78809097559153   -2.19311563484581

