31
CSD_code = QAPMOL | q = 0 | S = 0 | Stoichiometry = C10H14N4PtS2 | MND = 4
Pt        1.50203773197956   14.57952670166173    2.76004557077045
S         3.06555008257489   16.20896700975788    2.29217619497281
S         3.66282584989541   14.27398337618900    1.97256944308607
N        -0.53230264705084   16.45244059463581    4.21429947919933
N        -1.36824372457960   15.23844529450267    2.64978336140300
N        -0.61427050745580   12.26080727137160    2.79043471388378
N         1.22043606605630   11.76612832148150    3.79760719599064
C        -0.21390984123149   15.53018399503634    3.29129726577989
C        -1.87176982881630   16.73655723974314    4.15727547975264
C        -2.40085936217921   15.97104982868915    3.17341961132136
C         0.41749698467685   17.06047489765145    5.10338279090943
C        -1.42710597838657   14.29830333562182    1.56210997740376
C        -1.69031943755915   12.86698992232731    2.03371701042467
C         0.62550445515320   12.73857595469354    3.07537869248807
C         0.38581864103263   10.69576884475734    3.95273965348143
C        -0.76808696797503   11.00133929715566    3.32030997095716
C         2.54290252583261   11.84294098499995    4.35456019105527
H        -2.33455077777169   17.45236300531604    4.80509451343690
H        -3.40445531115077   15.90410668369086    2.80611680050071
H         1.41676319528520   16.75843297544666    4.77898583075971
H         0.25335292962408   16.72973970706985    6.13061180642711
H         0.33835824085167   18.14663916969641    5.05816718488642
H        -0.45969098652216   14.33886208866599    1.03899033299386
H        -2.22568373239198   14.59065128622354    0.87622387954457
H        -1.88151160142193   12.24698179469493    1.14946819122156
H        -2.59193138915708   12.85402092657254    2.66003210399621
H         0.67222803407802    9.81649506920897    4.49214867556218
H        -1.67064768575420   10.43796414007819    3.20167317848330
H         2.49500496437473   11.90183047026813    5.44329136267212
H         3.03098925819082   12.74318208144506    3.96246835276362
H         3.12527081979910   10.96804773134621    4.06572118387184

