40
CSD_code = QAPVUY | q = 0 | S = 0 | Stoichiometry = C19H16O4W | MND = 10
W         0.27054152164901   10.29419983882139    3.44491286230217
O         2.83016510632781    9.11802203374617    4.74207389445885
O         1.14744485318690   12.47649068280358    5.48529644317685
O         0.11582159367382   10.70311849248531   -0.37905966305559
O        -2.36108305643758   11.37126292052643   -0.59615370691985
C         1.88006375728964    9.55315704031921    4.26024659199193
C         0.84241089856914   11.67910702380837    4.70303502872500
C        -1.07620011283350    8.46675690905020    2.96871218749960
C        -1.22685113820070    8.75495248155066    4.35057289594019
C        -1.83918892451617   10.03625524973295    4.46026201522502
C        -2.06615265877972   10.52671910925549    3.15384160757915
C        -1.59237014377342    9.56271587860656    2.23659542249311
C        -0.89739228025449   12.44944569635353    0.90062514628631
C         0.11994891076222   11.40668185521487    0.61624736150499
C         1.15690097944091   11.24861005337638    1.65792948311869
C         1.38534743471405   12.24690213374246    2.65951686045011
C         0.69847460716546   13.57428369694466    2.48567802712267
C        -0.64552018339802   13.46115030575895    1.83273459466268
C        -1.62524258451968   14.40233521917153    2.11818767393252
C        -2.84824155241511   14.35070754931734    1.47834596671813
C        -3.11654021136677   13.35928565029788    0.55172845327747
C        -2.15535384725811   12.39781127803831    0.25385047317163
C        -3.58439910700263   11.27396751924701   -1.28230190255517
C         1.88111179060847   10.02758742803425    1.80760181794815
H        -0.77191401298219    7.51496172484948    2.55487171463662
H        -1.06600800724533    8.06112616338943    5.16740062708242
H        -2.19896422965530   10.48381789814146    5.37900981925162
H        -2.62200123636805   11.42094861360056    2.91188278586473
H        -1.73700420166316    9.58089435874955    1.16491593537658
H         2.42382468882152   12.34150479282071    2.99237425281373
H         1.33409772446829   14.20751823881213    1.85095853049702
H         0.60791701870460   14.09010234880203    3.44577557495335
H        -1.42370955343547   15.17752658618518    2.84166960439939
H        -3.60689788403964   15.08579854978385    1.70179744339227
H        -4.07928359333102   13.33956997856643    0.06712317710826
H        -4.42509871994739   11.13948350989176   -0.59282271410703
H        -3.49174316717926   10.39204723938063   -1.91406419554787
H        -3.76397294000026   12.15072063758889   -1.91202104014264
H         2.93629391324462   10.08752328315624    2.06278730654910
H         1.65916854797657    9.26033003007904    1.06746164281692

