34
CSD_code = QAPWOT | q = 1 | S = 0 | Stoichiometry = C9H18Cl2CoN4(1+) | MND = 6
Co        1.77263119458550    9.39831893353036    4.00052102807952
Cl        1.67326994293637   11.57601028180519    3.52207921398643
Cl        1.92212103246333    7.25342008001656    4.54759205309384
N        -0.12045422188394    9.54346332140989    4.57339596395490
N         2.17256746975616    9.78038226581545    5.85295662225090
N         3.73293309265079    9.48170281953434    3.74764770168035
N         1.36458673854427    8.94097395318629    2.15814357197920
C        -0.18674493967689    9.66444171509895    6.04536025275418
C         1.04128256241706   10.45398218157126    6.48983270661667
C         3.48861094883815   10.40873334586657    5.96497736840138
C         4.39729705186693    9.57577487784453    5.06490211639675
C         1.89547211489882    9.60884208295364    1.12937321222360
C         1.63085815349385    9.29660203973628   -0.19191659660641
C         0.77836009637465    8.24382154793373   -0.48112487030628
C         0.22523485817560    7.54869573059899    0.58173731142235
C         0.54121978909545    7.92665255450138    1.87414467800641
H        -0.44199119314572   10.42582013290014    4.16403358689583
H        -0.76969043823463    8.81730991755971    4.27008260931532
H         2.24271511619299    8.84087547821085    6.25990566683745
H         4.14526896757193    8.71390637154331    3.21575405523531
H         3.91949065981406   10.34888505972631    3.23791996428281
H        -0.15026283798892    8.65921891112950    6.47348763363650
H        -1.11151705686946   10.15303221575072    6.36453264564108
H         0.99013088398704   11.48083413979334    6.12047986211172
H         1.13593223796440   10.46819605654549    7.58001613216752
H         3.84866518489545   10.42162079867213    6.99828383870249
H         3.42004732467428   11.43441025935194    5.59467887461110
H         5.39221547430158   10.02095407060475    4.97890251871785
H         4.49473641504852    8.56721241780200    5.47466050726585
H         2.53497519696102   10.44794013868389    1.35844687346877
H         2.08997105746951    9.87629519914423   -0.97613853592333
H         0.55310429785025    7.97366830281478   -1.50066765687799
H        -0.44344157554243    6.71870084857164    0.42055265856582
H         0.14030440051365    7.36610194979249    2.70544643141298

