66
CSD_code = QAPWIP | q = 0 | S = 0 | Stoichiometry = C26H36N2OZn | MND = 3
Zn        0.47283545181456    3.37070179149076    2.51448489267758
O        -5.19868703183666    6.60157028523670    2.57469320077856
N        -1.28340843636492    2.70336284145302    3.22326815267037
N         1.42298504128992    1.63994178981027    2.92353626925246
C        -2.83073035244050    1.13773451206437    4.31675297344454
H        -3.61465104056920    1.64604509956433    3.75941468034901
H        -2.93472475490967    1.39908423614711    5.36928098566179
H        -2.96614080274258    0.06300226973991    4.22389574962090
C        -1.46318838669565    1.53668693812749    3.81357898978908
C        -0.45361362138088    0.59192207643068    3.97307502328412
H        -0.74870574090097   -0.32081210471295    4.47122681475222
C         0.87752580584423    0.62519305280774    3.55515710042565
C         1.68687264387025   -0.61495611161091    3.85413062907425
H         2.72508031533478   -0.49137068426868    3.55646367969825
H         1.26940140834465   -1.46687765489887    3.31910419301778
H         1.64452503254400   -0.83539591057059    4.91932702627892
C        -2.31393780669893    3.64762484851326    3.11976394663587
C        -2.67103776727352    4.11753629729948    1.85468982398904
H        -2.18662227256141    3.69482785065900    0.98455047205030
C        -3.63036921001117    5.09401334513167    1.71024038668657
H        -3.91301713282501    5.45654362553296    0.73442348140744
C        -4.26049022675835    5.64107636759734    2.82901066295731
C        -3.89928301249493    5.19083490089628    4.09273154936663
H        -4.35370188030796    5.60083666829207    4.98123010133308
C        -2.93824417475596    4.20445729446484    4.23157405433666
H        -2.65063016523167    3.88082537410852    5.22116680398001
C        -5.86694697215854    7.18711698826191    3.66322510176180
H        -6.56196975001056    7.90567371915911    3.23131300097176
H        -5.17286994994439    7.71207791238553    4.32826376619477
H        -6.42871961831297    6.44369387400914    4.23907141186662
C         2.75266640688504    1.59134356610352    2.45390222512070
C         3.00839480505901    1.10010787713915    1.16479418292921
C         4.30045594783193    1.16997438353909    0.66791570805978
H         4.51235746270161    0.81354157959688   -0.32811131945541
C         5.32900609147427    1.68948689967433    1.43213700984795
H         6.33101369952382    1.73373621998792    1.03119805521168
C         5.07280698230347    2.14898916477902    2.70903165025194
H         5.88329086718631    2.54583430918939    3.30192094384712
C         3.79069729514324    2.11003605342730    3.23795995586113
C         1.87689708813593    0.54861754115628    0.32622080597063
H         1.07430983953286    0.23066221964616    0.99916446050615
C         2.29220213872763   -0.66257033966768   -0.50934735867227
H         2.81003993419662   -1.39390808499294    0.10739133080312
H         2.94621688737618   -0.37354941219255   -1.32813344543149
H         1.41024590740701   -1.13469723367114   -0.93743936648271
C         1.32262847127334    1.65687212837987   -0.57348808847760
H         0.93806439473772    2.47901271617334    0.03670596808661
H         0.51218139706491    1.27496412054411   -1.19118213477434
H         2.10440768229036    2.04647301776524   -1.22222496631948
C         3.52861483260986    2.61895197654657    4.63689712959639
H         2.46076528338973    2.50377006507561    4.85423573799857
C         3.86993327056431    4.10632287905918    4.74580245267451
H         3.29763306331164    4.67593144261877    4.01624941621648
H         4.92825408961469    4.27752654236024    4.56456205928646
H         3.62839625606901    4.47461406142959    5.74085106802620
C         4.31417231962185    1.80531718168489    5.66807474048960
H         4.06880874165806    2.13841417074607    6.67446489289653
H         5.38511662777105    1.92245526061776    5.52049761591131
H         4.07135034120017    0.74809025999475    5.58613836670472
C         1.16273000324948    5.14075787248406    1.82169456297452
H         1.25478996303893    5.85338144256181    2.64384743232510
H         2.17343908463660    5.00983044988980    1.42995515595927
C         0.31766795502698    5.80657853339931    0.73202729676976
H         0.78216707920629    6.74316161911295    0.41591167333032
H        -0.68237755738237    6.03346956014724    1.09474748339994
H         0.22591975568668    5.17052846258101   -0.14651762573449

