67
CSD_code = QAQBOZ | q = 0 | S = 0 | Stoichiometry = C24H38Cl2Si2Zr | MND = 12
Zr        4.52134756765920    1.72608269267176    4.39579339235806
Cl        3.91563575422501    3.41689312840633    2.88129414592852
Si        1.45366218126774    0.98309274793416    2.32339065744134
C         2.27671283538373    0.95053167123110    4.01652720205036
C         2.99430890775113   -0.17207720485858    4.52499720899272
C         3.31874875806342    0.06615341807290    5.87846064433310
C         2.78065506814141    1.32764392910633    6.23948328939760
C         2.68340723256179    1.94591504797951    7.60856506582311
C         1.51539026580660    2.93542853421046    7.63163766880856
C         1.62544394925756    3.89722271214682    6.44935523964353
C         1.36716880010017    3.15577869301111    5.13474788638262
C         2.15647711690009    1.87672512862297    5.09818865857685
C         0.09670878643425   -0.36754414816142    2.33478056688586
C         2.77816232475085    0.49381570785060    1.03037723735314
C         0.64581705387120    2.63169101125215    1.81153111303497
H         3.13667720422273   -1.10875003596498    3.99868180786283
H         3.74466249268796   -0.65492124890854    6.56459935844694
H         3.60024562124125    2.48958230787410    7.86455587158519
H         2.53818689472144    1.16408551325190    8.36045724013473
H         0.57034850387344    2.39036674747136    7.56722932145389
H         1.52432278426631    3.49032398294350    8.57108825209014
H         2.62885915624320    4.33085168842458    6.43168333040162
H         0.90677703771863    4.71182412039032    6.55689047623471
H         1.62333123655445    3.79934000201595    4.28803495103590
H         0.29986171904122    2.91617225800643    5.05624532330888
H         0.49816171626937   -1.34060534867018    2.59843536356686
H        -0.36319798455035   -0.45561983223922    1.35656962319830
H        -0.68828224461153   -0.13576785793530    3.04702374137467
H         3.08340357318794   -0.54326113264857    1.14013256784473
H         3.65882732740559    1.12490441202212    1.12306491220655
H         2.39583972544306    0.60834424138512    0.02126895690616
H         0.22535195663547    2.53989629147553    0.81469063857501
H         1.36783624927267    3.44045260744147    1.79105804528072
H        -0.16084728672046    2.91372624129333    2.47974213496273
Cl        5.12633323421984    3.41855148071059    5.90986240383485
C         6.76593170832971    0.95019675528679    4.77531703135836
Si        7.58872240735374    0.98299673680719    6.46857503307812
C         8.94695133705203   -0.36634972129833    6.45658341636375
H         8.54639166301877   -1.33967825054616    6.19254632334825
H         9.40679204640763   -0.45441823882288    7.43481114305939
H         9.73188260144564   -0.13366537130883    5.74452854511623
C         6.26454037363454    0.49211013076533    7.76124367305901
H         5.95978867720144   -0.54503756890006    7.65071331764706
H         5.38364024676058    1.12293384995158    7.66888550966546
H         6.64686401723849    0.60618754726317    8.77042940277994
C         8.39546383468101    2.63193634305959    6.98120017525026
H         8.81554044492488    2.54005785730178    7.97819214615517
H         7.67290791205276    3.44018337689812    7.00170230884603
H         9.20222177346181    2.91485217349450    6.31347132242364
C         6.04804489275380   -0.17224958104999    4.26693233049591
C         5.72383462583332    0.06593898575351    2.91338780938503
H         5.90537733168119   -1.10881623512858    4.79334624205599
C         6.26213284439420    1.32736048184558    2.55232690354660
C         6.88637556516528    1.87632574204188    3.69363585065342
C         6.35969697215665    1.94554606966620    1.18321333399915
C         7.52809942032610    2.93461029322991    1.16000041914813
C         7.41797876226590    3.89635975291570    2.34229853035732
C         7.67583867283165    3.15526607222516    3.65718218049625
H         7.41964616042335    3.79897912688741    4.50381412545641
H         8.74308815192421    2.91542196818020    3.73572057516836
H         6.41473299002039    4.33031191295131    2.35976394558968
H         8.13671493995225    4.71083929590302    2.23472137125206
H         8.47298519034795    2.38931335091646    1.22483002443136
H         7.51953729477192    3.48939968808467    0.22045534586813
H         5.44303567627172    2.48944223187561    0.92701599701113
H         6.50487763390787    1.16359332802365    0.43145426831382
H         5.29781831202588   -0.65509761207131    2.22725710130623

