31
CSD_code = QAQBIV | q = 0 | S = 0 | Stoichiometry = C14H11CoO4Si | MND = 5
Co        2.69765814808015    3.68576545146476    2.44663312815431
Si        1.44851274813060    1.69994013656282    3.04500703263198
C         3.57988607188973    5.15680029447906    1.99902343769952
O         4.14147375559274    6.10684799916718    1.70772213095703
C         1.14516833930610    4.25386543433451    1.74344375889432
O         0.18258094270149    4.66830937819168    1.28267825262900
C         3.76494540797910    2.53464166698228    1.55935947012529
O         4.47421509308324    1.82845976925898    1.00613865982774
C         3.01012211817066    3.79915511399901    4.22066369216894
O         3.24865602940816    3.87661864344921    5.33585911372770
C        -0.10046322797353    2.08104815413660    4.11312801891371
H        -0.57115586553048    1.14954459427993    4.41062989856262
H        -0.83477519259335    2.66520860538167    3.56694366521755
H         0.15454168695549    2.62676466053279    5.01602731764366
C         0.87811477870815    0.67227457162889    1.52765537284403
H         1.71715235536494    0.33025474448502    0.93043393586356
H         0.21846533706046    1.24177481768530    0.87983832891161
H         0.33581833451426   -0.20378363915488    1.86850864240146
C         2.53312884879743    0.60486218072744    4.07946181092922
C         3.27372659853967   -0.04072472043283    4.78694619721874
C         4.12005958631432   -0.80712862294572    5.61991173258743
C         5.36292076748308   -1.23999479120597    5.15516740702934
H         5.66913303579050   -0.98997485652908    4.14993910474237
C         6.18714307584383   -1.97932762786429    5.98130951935505
H         7.14908772239973   -2.31276666564679    5.62022044780322
C         5.78487923086422   -2.29300331759880    7.27014146479215
H         6.43308307661599   -2.87047750573650    7.91255521563717
C         4.55110111085149   -1.86514101681988    7.73526328063377
H         4.23836078022602   -2.10984646266456    8.73989156193279
C         3.71830253932256   -1.12557668628888    6.91849462832308
H         2.75545676610332   -0.78669030385915    7.27170377184238

