48
CSD_code = QAQBER | q = 0 | S = 0 | Stoichiometry = C18H24Cl2N2NiO | MND = 5
Ni        1.73854714115258    8.41322336475262    2.09414484354355
N         3.25418651120001    9.49750630880340    1.67431199064962
Cl        0.01090009210046    7.45429187265491    2.51570452344804
C         3.85324728664057   10.20790980636951    2.62702705559985
C         2.89021576159388    8.79752482247832   -0.60767270948655
H         2.99990350903334    9.21980229523169   -1.61536473896480
H         3.34104671929794    7.79554418035879   -0.58081431201504
N         2.11291876444178    9.34102129180973    4.16940540998000
C         3.62291195819824    9.64396343393171    0.40054940104038
C         3.45093732691020    9.95108198411508    4.06557786473925
H         3.46488889407562   10.90339701016834    4.61483634629885
C         1.10708102313123   10.11849238088505    4.82509149166596
C         0.38868285563460   11.08186128539119    4.11022976225596
C         4.87327266745624   11.10314819894988    2.32755810344493
H         5.33921484513179   11.66998997390098    3.11877081137500
O         1.51729669203951    8.74080976747680   -0.25576885274734
C         0.79830836119361    9.87407724121162    6.17053661351726
C        -0.55421297664890   11.85512077041438    4.77651967301973
H        -1.10710392344597   12.59858959948873    4.22066644971314
C         4.63347059010834   10.51703103132844    0.03028014371228
H         4.90987581322722   10.61296311818514   -1.00742399318319
C         5.27071236656097   11.25811670475146    1.01194521715536
H         6.05869725262519   11.94877137476665    0.75371280662504
C        -0.81011975005198   11.66875027711517    6.11952182686354
H        -1.54062636647903   12.28155936072610    6.62594700070349
C         0.53092364344501   11.25842495703818    2.62499556973407
H        -0.46319928269435   11.42158332100364    2.20248961639748
H         0.91591716136015   10.32488289803984    2.17399956422355
C         1.39892673991330    8.72015375179433    6.92825151311496
H         2.46392529830390    8.60789883235982    6.71563398926960
H         1.30545061370127    8.90965672664356    7.99964635842062
C        -0.15495129431154   10.66000427980668    6.80043191060934
H        -0.38787175740759   10.47382770763275    7.83894591579786
C         0.65895237462329    7.42192110620474    6.58669394239893
H         1.12171266551310    6.57714982581024    7.09213149253176
H         0.65865855898260    7.22807681610483    5.51583088935232
H        -0.37783708279214    7.49221152794492    6.90652900431326
Cl        2.86628185494790    6.61565377213703    1.93307297600710
C         1.42077067989928   12.44021157378724    2.24669120612688
H         1.52454900575984   12.50733482288582    1.16559397712531
H         2.41286230530205   12.34539720404004    2.68215004191401
H         0.98116200098590   13.36742612394245    2.60965943396318
C         4.50957018916882    9.00264507048060    4.64446608011326
H         5.50794425249591    9.40948257611650    4.50356475445018
H         4.45019603816527    8.04477673308466    4.12838920326753
H         4.35182128821866    8.84861389917295    5.70925498120972
H         1.14019787240376    7.90128984450783   -0.54946120694898
H         2.19898345888855    8.44952917420412    4.65684605768912

