47
CSD_code = QAQGEX | q = 0 | S = 0 | Stoichiometry = C19H21ClN4PdS | MND = 4
Pd        1.21563829311899    1.21895093697894    7.06407913595049
Cl        0.50244899190578    1.58443271359190    9.12123844791570
S         0.07153529916253   -0.74437961847325    6.67606404894232
N         0.27180615171514   -1.94123005530918    4.33956173617736
H        -0.43753039871230   -2.52647754360024    4.75534410132250
N         1.49648965107344   -0.01650334877728    4.49401862925219
N         1.87132431118346    0.99151097861645    5.26852303840048
N         2.40191209844190    2.90943326613275    6.94062026086001
C         0.60793447654057   -3.61184660689078    2.59683571365725
H         1.33023222695067   -4.12486308276480    3.23425764514048
H        -0.37877635272333   -4.04085688631068    2.78794200288091
C         0.97087159053398   -3.80538664744898    1.12675774285568
H         0.97225869254868   -4.86979366260204    0.88552690053571
H         1.97717286869553   -3.41978067836807    0.95046745674045
C        -0.01760768417214   -3.06786737641166    0.22851494765677
H         0.26537054648474   -3.19709866370477   -0.81757949450716
H        -1.01457880497801   -3.49414334898987    0.35996746392173
C        -0.05176972251953   -1.58293437089823    0.57770877301359
H        -0.77621268033884   -1.06741880527780   -0.05505585060878
H         0.92973288002176   -1.14080044610462    0.39313512287945
C        -0.41939483560241   -1.38844192707279    2.04494017148180
H        -1.42294095905079   -1.77818000902803    2.23062217203427
H        -0.41040343190353   -0.32789229152343    2.30053610604528
C         0.58456173403972   -2.12469929534614    2.93779796253491
H         1.57512574118412   -1.68633057293236    2.78174593364411
C         0.66880443752435   -0.87861277849056    5.04775686765269
C         2.66212526233929    1.93313398290409    4.79299476362085
C         3.13706332669794    1.91862051733666    3.39914670267931
C         3.70638322700670    0.76712788143914    2.86006814235284
H         3.83325160567315   -0.10349070684806    3.48456057879550
C         4.11628079659454    0.74390122636633    1.54046328689180
H         4.56060447876628   -0.15238333662733    1.13277758611791
C         3.96119321842034    1.86462743226846    0.74136279474123
H         4.27963029773955    1.84369756879263   -0.29024266016002
C         3.39173024520205    3.01172867890751    1.26867126246514
H         3.26139485279950    3.88570690836832    0.64750732250994
C         2.98016236059768    3.04133503075249    2.58826677575801
H         2.51068410394839    3.92855563306998    2.98834624992505
C         3.01055253310974    2.97809786957394    5.72939216298775
C         3.94379939797064    3.98905688762331    5.46798595111849
H         4.44913891782399    4.01179485986222    4.51572250064377
C         4.21350743087441    4.93015300735899    6.44098032274896
H         4.92961578669738    5.71582352713915    6.25262700470135
C         3.55955429946548    4.85093199022755    7.66524594767225
H         3.74448135207851    5.57101803867791    8.44507364292324
C         2.66606748183172    3.81292745173552    7.87393305058674
H         2.13857390323660    3.69004567212415    8.81358957458983

