38
CSD_code = QAQJEY | q = 0 | S = 0 | Stoichiometry = C14H15N2O5ReS | MND = 6
Re        1.09166859174406    0.79940321950218   14.32029639043560
S         2.34780833568310    2.97471316378585   13.57080491447766
O        -0.28539154897906    2.20715347577429   15.12024102797323
N         1.96916352994652    1.38172545257610   16.31462662896309
C         0.15531462079532    0.58184100141191   12.62696310176634
C         0.14233592292106   -0.74134730803690   15.03473138143150
C         2.57525329373176   -0.29163391683314   13.70122148444578
N         1.36422227477688    4.49808341890740    9.28844681715899
C         0.70245158618127    4.65679677957094    8.15771067465220
C        -0.42444280046781    5.45660649201405    8.04057925984434
C        -0.87421504554550    6.11856394547704    9.17148948425831
C        -0.18336310734044    5.95495446300806   10.36118307866918
C         0.93811365795986    5.13398368536852   10.37168400640180
C         1.72198897283900    4.87669579265744   11.63066267773364
C         1.28006349519227    3.53636690097923   12.20593569164565
C         1.98601960483429    4.28063852453154   14.80949927149655
C         2.29431432498046    3.85380391573881   16.23975957364302
C         1.43011571721417    2.68963270426803   16.74064747988185
C        -0.02637946593167    2.88989897637613   16.14695771440286
O        -0.73513054088614    3.72304695760010   16.67477658751849
O        -0.43921627270800    0.51272427233624   11.65277982048950
O        -0.42372793828541   -1.62870216861106   15.48523459187441
O         3.49266177421696   -0.89075148516359   13.36331795241617
H         1.09871259473958    4.11548293420694    7.30870389924732
H        -0.93328532313981    5.55687712553109    7.09501064827201
H        -1.74892241140437    6.75116277790889    9.12956232854109
H        -0.50629490747218    6.45590367270515   11.26142829459849
H         2.78347390536211    4.82485386362385   11.38099144480817
H         1.55496538584260    5.68316920043349   12.34661356963013
H         1.36988004984697    2.76181500635909   11.44269845187779
H         0.25214644479076    3.57234939944605   12.57194790590476
H         2.60879715976355    5.13430622274674   14.53709801667943
H         0.93467229533076    4.55225240743635   14.71116006689501
H         2.09655908458414    4.71732590425405   16.87904727903252
H         3.35811607872247    3.60375731339193   16.32973636570506
H         1.36318441749234    2.74374769419623   17.83389386887823
H         1.69579680969390    0.68069253134116   17.00557071584556
H         2.99146943297061    1.41030568317813   16.32558753250564

