45
CSD_code = QAQMOL | q = 1 | S = 0 | Stoichiometry = C14H28N2Rh(1+) | MND = 6
Rh        1.34504817084059    5.31933676143097    8.36851567268369
C         0.33079837107460    8.00197167322657    7.23205627262788
H         0.45422769280650    8.89174816069636    7.84736565000820
H        -0.43355277266471    8.22814322955022    6.48815953737089
C        -0.14508042298288    6.85693370825741    8.09687148229625
H        -1.06766152082637    6.39756869339832    7.74816852235072
C         0.15991972016941    6.72525844022111    9.44667972534485
H        -0.53767318349868    6.17036255628143   10.07500037357597
C         1.63926858167863    7.65262449591580    6.50292188425873
H         1.40074503418944    7.17096291620416    5.55166554507714
H         2.19759244229810    8.56350610423001    6.26859281750543
N        -0.11164458247900    3.66734397612667    8.33462183429313
C         0.65124470187426    2.45599074149058    8.68280553082637
H         0.11066076030722    1.55769461553305    8.35136349528099
H         0.73720312578482    2.40442253682251    9.77075201875615
C        -1.32770778344272    3.67912305845901    9.15354593362318
H        -1.07022191595662    3.72690543922746   10.21106001642231
H        -1.91734893609994    2.77179566679376    8.98190398501903
H        -1.94715140259026    4.53829979377531    8.90574023430056
C        -0.50523146811420    3.61493873811823    6.91717136633761
H         0.35934933680239    3.76115351447443    6.26627509943248
H        -1.22712777527349    4.40020049546204    6.70204182133902
H        -0.97081117819184    2.65183898562164    6.67824664583921
C         2.35929899060017    8.00197050384262    9.50498258581264
H         2.23586919980040    8.89174736970961    8.88967388032932
H         3.12364993655028    8.22814155467801   10.24887966340150
C         2.83517769247116    6.85693305041746    8.64016663588727
H         3.75775929963421    6.39756838707710    8.98886878616902
C         2.53017867565153    6.72525993282243    7.29035787835334
H         3.22777156633314    6.17036484804946    6.66203655913155
C         1.05082919335013    7.65262236656723   10.23411707023741
H         1.28935334670911    7.17095896016750   11.18537238144243
H         0.49250562973039    8.56350355944606   10.46844851589717
N         2.80174183586796    3.66734425870439    8.40241242635743
C         2.03885289574838    2.45599125304332    8.05422647884632
H         2.57943634100927    1.55769428361302    8.38566711720890
H         1.95289565227186    2.40442462323195    6.96627982814774
C         4.01780479377510    3.67912474130441    7.58348782743314
H         3.76031816625645    3.72690991161165    6.52597392784635
H         4.60744605738040    2.77179740099485    7.75512691430608
H         4.63724839437868    4.53830118814812    7.83129530082588
C         3.19533020108517    3.61493553892816    9.81986270456045
H         2.33074983545846    3.76114868798907   10.47075992869026
H         3.91722644197991    4.40019744368792   10.03499298821204
H         3.66091085825400    2.65183583470442   10.05878513639961

