78
CSD_code = QAQVEJ | q = 0 | S = 0 | Stoichiometry = C29H44N3OTa | MND = 5
Ta        5.09064657446044    4.20178830571743    2.21164346759116
O         4.53868135394185    6.05360136474613    2.13839871623289
N         5.00303375755761    4.02131434284296    0.21239637623283
N         6.68518225889677    4.60831022674288    3.36028777181051
N         5.29524498529745    2.25063832104354    2.49042242024665
C         3.56710347964753    6.63045793824326    2.83277239936777
C         3.35663561164650    8.02061952924637    2.90942479108288
C         2.33393685437784    8.46947027891354    3.73088178822088
C         1.51358407169162    7.62464445749128    4.47463374170464
C         1.72211436078926    6.25744513011644    4.36570537736945
C         2.72844415581583    5.76296140167263    3.55404226238275
C         4.07834959023289    4.75001601164698   -0.62566429618068
C         6.04229087396761    3.41956911542959   -0.59100239678188
C         6.67113923227119    5.60894385837805    4.40251030916138
C         8.03592552414507    4.17799789947505    3.08634568873112
C         5.84859106456501    1.61402568081568    3.66910278331379
C         4.68331045305907    1.22228137292810    1.67464130620294
C         2.95012445459406    4.30158743043071    3.38235181513973
C         2.09941583216164    3.56344911835105    2.44879186423854
C         1.80604178295394    2.33183866250985    2.93826791453874
C         2.39375894531550    2.20102705764699    4.24115781582347
C         2.38381984143586    1.16378206435461    5.16583193554441
C         3.00760758976611    1.35365422379769    6.38472535128698
C         3.63462142111181    2.55929200278235    6.68950679731837
C         3.66797169870292    3.59673119838923    5.77487646255626
C         3.05856162819143    3.41698438593552    4.54078434811068
C         0.42867215838418    8.22663751075488    5.35578245264988
C        -0.36157082183633    7.16114954597209    6.12015438692654
C         1.07338378837178    9.16807203026014    6.38294331983616
C        -0.55472128694036    9.01309016162636    4.47759725543465
C         4.24000361654522    8.96945228314630    2.10930866928019
C         4.11345349425401    8.62407822508691    0.61912267494255
C         5.69834474923477    8.79234685696911    2.55382798251260
C         3.85776403067966   10.44084654967060    2.29383153467009
H         2.16345404757609    9.52995883212724    3.80271259605879
H         1.11494938342114    5.54620473907058    4.90180822187178
H         1.72884705938119    3.98635286568171    1.52629530317917
H         1.22302241118041    1.57012797330351    2.44989396129182
H         1.88891110601914    0.22918607205646    4.93978277986894
H         3.00298776279063    0.56002899429331    7.11863436173186
H         4.09783694488017    2.68299111635284    7.65821658087742
H         4.14922948945894    4.53429173829232    6.02120777274657
H        -0.87142237387233    6.48715600316394    5.43612942886918
H        -1.11419123118760    7.64270230133374    6.74182713766239
H         0.29126246710686    6.58139703425353    6.76829836226537
H         1.78880248429690    8.62169464460241    6.99384064699550
H         0.31192111332099    9.58968814793298    7.03617031330116
H         1.59572123985948    9.98768880088492    5.89760895286525
H        -0.05707439884623    9.82665318906932    3.95716790955681
H        -1.35053061015752    9.43496963479757    5.08833057797457
H        -1.00057486033818    8.35548185379746    3.73444752126172
H         3.07846125622178    8.72057968404754    0.29571295593960
H         4.44101614932357    7.60393497215553    0.44076162640518
H         4.72821042799127    9.29565871356777    0.02243724304788
H         6.34534481829733    9.47090120218215    2.00055710462731
H         6.02655042605155    7.77268639246006    2.36979866142743
H         5.79730657403764    9.00664718990826    3.61673734397793
H         4.51759338647609   11.06088616225300    1.68963426953998
H         3.96672495867187   10.74895931073845    3.33130571636999
H         2.83583543278669   10.62514298169644    1.97010212426988
H         4.59920126672983    5.51319683327583   -1.22229899246361
H         3.32797787784099    5.24360993594048   -0.00933114806472
H         3.56554713341673    4.07413453333608   -1.32379668549706
H         5.61647189906849    2.80443603130418   -1.39478566605281
H         6.66519334289025    2.78538975195586    0.04084022425236
H         6.67839368803382    4.18438739759265   -1.06062401885844
H         7.01889634378693    5.18386956850960    5.35449679524093
H         5.65889619974781    5.98869820764141    4.54519358546240
H         7.32988615228172    6.45389146317884    4.15422625330443
H         8.63605936278687    4.99439687341742    2.65699019199813
H         8.01369397042703    3.34953121792944    2.37761274953790
H         8.54090576344152    3.84282627936953    4.00188655531355
H         5.07056762574361    1.08012795415918    4.22861189966051
H         6.28789619768314    2.36335829688580    4.32263453845846
H         6.62035433530478    0.88332312110661    3.39236149503479
H         5.41964703094728    0.45936450826359    1.38852488713869
H         4.26219768761568    1.66470131097481    0.77421751773650
H         3.87955153217306    0.71618162205839    2.22461525626355

