101
CSD_code = QAQVAF | q = 0 | S = 0 | Stoichiometry = C46H52O2Zr | MND = 12
Zr       -0.97524953727667    0.92315251105944    7.06565627280005
O        -1.66465855866162    2.17298328120574    5.80023256915947
C        -0.79602003824768    2.97820719537626    5.16197777034231
C         0.52419343367269    2.50530374933878    4.96151600196718
C         1.46795086226542    3.29335326488144    4.33037096918674
C         1.14340568705723    4.56557565790796    3.86916747103835
C        -0.15862704248862    5.00864159230740    4.05694620932543
C        -1.14244891679559    4.25513441922055    4.68971333817617
C         1.21439256724980   -0.51300609006164    7.04461740850182
C         1.51207591648198    0.81256371476129    6.66279635982451
C         0.79481030090662    1.14678205185327    5.48728214265546
C         0.03266650988866   -0.01034811304379    5.11602990828325
C        -0.88593012281676   -0.25073188923636    4.07216071173027
C        -1.40787235635710   -1.51356593301691    3.93115760422089
C        -1.02324344158402   -2.56371610891444    4.78633773408827
C        -0.16377790572516   -2.35693434367208    5.83633788393444
C         0.33400223436681   -1.05988096633735    6.07012692603391
C         2.21463013254436    5.40792738620662    3.19210488236475
C         3.35619003606487    5.64974172346257    4.18961798990100
C         2.74709398640024    4.65560802316585    1.96444704258218
C         1.69496974670166    6.77001881219662    2.72435218439661
C        -2.56315713199708    4.77208659261245    4.88679027018669
C        -3.53779448737240    3.81219644294214    4.18811601906438
C        -2.77959970262849    6.17274034727598    4.30568552654003
C        -2.87282511236567    4.82605859458083    6.39014178433768
H         2.46274622966010    2.89244526044238    4.20507576094715
H        -0.42520058897568    5.98614454176948    3.69986074350242
H         1.71920836089824   -1.07256466236699    7.82216710754376
H         2.23203908004573    1.46124251473984    7.15180771282571
H        -1.12311203437958    0.53683316836389    3.36538578312042
H        -2.10008711130519   -1.72337955590355    3.12870836845568
H        -1.40827085083227   -3.55488566616000    4.59563303473900
H         0.15480111428653   -3.17855311325037    6.46315577140567
H         2.98036963256608    6.17134353155182    5.06714149541475
H         4.13424703448092    6.25715005533950    3.73168757418922
H         3.80037337840513    4.71314628300765    4.51392311913516
H         3.50409737150989    5.25090051898706    1.45788391565195
H         1.93721142509319    4.45892225028858    1.26528675012296
H         3.19246897954208    3.70553286695337    2.24448513690738
H         1.33414218714442    7.36087945984971    3.56270611579240
H         0.89496643187284    6.65457920580910    1.99701679795909
H         2.50363572625098    7.32168604369090    2.24882572556967
H        -3.32956597276341    3.77865797298926    3.12026224944320
H        -4.56344914494692    4.14695361533817    4.33098726438649
H        -3.43798346263205    2.80767679295135    4.59336928767135
H        -2.13193713803248    6.90296589211916    4.78511136752165
H        -3.81043609115267    6.47521195959894    4.47957975955271
H        -2.60271019417725    6.18683006515056    3.23273583806990
H        -2.72715366922657    3.84933843484842    6.85135349923561
H        -3.90335469990278    5.13690054904739    6.55110237950012
H        -2.21732448639247    5.53747935084964    6.88805417791788
O        -0.28551206779309    2.16739787148440    8.33640502029307
C        -1.15575293210306    2.97352874938132    8.97144273503953
C        -2.47685151387870    2.50140301191563    9.16824214113230
C        -3.42252785930909    3.29116272538989    9.79439049765432
C        -3.09909606547789    4.56413905492287   10.25432644605886
C        -1.79601806991516    5.00601238795963   10.07106490172470
C        -0.81027930844968    4.25086285476000    9.44320842225872
C         0.61127262891168    4.76685095010754    9.24969298682570
C         1.58358845544902    3.80703005093765    9.95170362604987
H         1.37218513576952    3.77404948460056   11.01895429791938
H         2.60975409460772    4.14144982824768    9.81172515057376
H         1.48474759032454    2.80234619186980    9.54664793334140
C         0.82689659549309    6.16776380321961    9.83045258802956
H         0.18139971041024    6.89815681687169    9.34838118215164
H         1.85853454532953    6.46933496592408    9.65977882975500
H         0.64641576490708    6.18270600116883   10.90279377317952
C         0.92480579218182    4.81963824679088    7.74704892601348
H         0.77963851708375    3.84262939544017    7.28618209540156
H         1.95592211545547    5.12978956030221    7.58844632890237
H         0.27094894941684    5.53104767282744    7.24694504678883
H        -1.53024728796733    5.98401149116481   10.42739411815710
C        -4.17303130924608    5.40910096556764   10.92380882996541
C        -5.30768212052425    5.65162636322860    9.91858351118469
H        -4.92540553699981    6.17226663336818    9.04328106578157
H        -6.08807326436110    6.26022069346802   10.37093993737010
H        -5.75070128998807    4.71529673258565    9.59189705057074
C        -4.71486006129132    4.65949154180657   12.14899920407324
H        -5.47374763931478    5.25708711689960   12.65000849722260
H        -3.90986491110747    4.46189443535602   12.85351725647843
H        -5.16062757920392    3.71008183998261   11.86736593715148
C        -3.65397457812440    6.77088609588673   11.39311704778873
H        -3.28756706088134    7.36035448333781   10.55620977472435
H        -2.85822151295021    6.65494497152697   12.12501712698866
H        -4.46446806112808    7.32427239477666   11.86350760252693
H        -4.41813860775346    2.89121177308829    9.91623134602954
C        -2.74696560167564    1.14292314823920    8.64213541588362
C        -3.16457482336269   -0.51514897082110    7.08238740780070
C        -3.46307689610313    0.80977706644517    7.46552688501500
C        -1.98483138137819   -0.01444632665348    9.01272226112367
H        -4.18264169903178    1.45895743317942    6.97659595177551
C        -1.06721641149411   -0.25593998849265   10.05720071324427
C        -0.54474185921138   -1.51869880485609   10.19688413735817
C        -0.92794114325176   -2.56781232242683    9.33980320990129
C        -1.78666121592455   -2.35998122951921    8.28940636786739
C        -2.28489964912870   -1.06286355014871    8.05702949780719
H        -3.66837529152694   -1.07395365405950    6.30365317634427
H        -2.10426296417259   -3.18088253481010    7.66115300039614
H        -0.54253098864011   -3.55904490120748    9.52941454766896
H         0.14674940518942   -1.72931856003640   10.99975286790571
H        -0.83118930402105    0.53065678682652   10.76543360751465

