83
CSD_code = QAQVEK | q = 1 | S = 0 | Stoichiometry = C41H38P3Ru(1+) | MND = 8
Ru        1.00361341491068    3.82280885682605    7.44316410935843
P         1.35512740034209    2.31099278096626    9.07956964829697
H         1.90747261225591    2.53666205901183   10.33421620584582
H         1.98994354935848    1.08421327797082    8.91725840173840
H         0.18382233745785    1.74950214640959    9.57951092868223
P         2.90153921255386    3.33344274597243    6.19447818182107
P         1.88637174351028    5.57580265813469    8.68936435942038
C         4.47129988817273    2.76417714799988    6.92948099382359
C         4.57596824975136    2.51590622023636    8.28989348843622
H         3.73289082814865    2.74403858814826    8.93609081446233
C         5.74799171821031    2.01092955349498    8.82413014724243
H         5.81791543053096    1.82315794419241    9.88473229271079
C         6.82618345026839    1.75082339050502    7.99584524035078
H         7.74137362761542    1.35509156586429    8.40835783254913
C         6.72900878217920    1.99557588337649    6.63402897490464
H         7.56891759132260    1.79152927968250    5.98747837926056
C         5.55763761214814    2.49426256109062    6.09805324218384
H         5.48380617294056    2.67813804296226    5.03594259196854
C         2.61272587459171    1.89872574255126    5.10080668459304
C         1.90472750493524    0.82284055140118    5.62977022782632
H         1.49979544643235    0.89615874916439    6.63487513856364
C         1.70623596832943   -0.32334663598844    4.88459144626247
H         1.15397111912398   -1.15122039060397    5.30320256647522
C         2.21629820845877   -0.40640550518671    3.59857635127281
H         2.05873390882276   -1.29780982137293    3.01144686188978
C         2.92809542843661    0.65668377082754    3.06850674994332
H         3.32781587182753    0.59376414901463    2.06769745267767
C         3.13369748418573    1.80456652678528    3.81396738651129
H         3.68800454882959    2.62711919530304    3.38526113944415
C         3.42666014775819    4.64954141241744    5.05636510436553
C         2.64268956666821    4.92686294778691    3.93700465067102
H         1.78144937144924    4.30753271928555    3.72128790103244
C         2.97626516043853    5.96955571982570    3.09358420180929
H         2.37218257322159    6.17023980806391    2.22107371560255
C         4.08647610216978    6.75393805946614    3.36597092350495
H         4.34625818730998    7.56807509097224    2.70694971296540
C         4.86536359789585    6.48768202315046    4.47972572429223
H         5.73240661216249    7.09493533979329    4.69103372199083
C         4.53831157132348    5.44201256806868    5.32392750158185
H         5.15833230443879    5.22491484961715    6.18191627413767
C         2.43284721202628    7.09391380583731    7.85047369480054
C         2.08809927288480    7.31919307267410    6.52463906629081
H         1.53050432863703    6.56587610359389    5.98769843485102
C         2.46491276544010    8.49074790221388    5.89224548690155
H         2.19106018400753    8.65711044408339    4.86139663999165
C         3.19199420797422    9.44449170612465    6.58305705313187
H         3.48942074311968   10.35812568072103    6.09179149917988
C         3.53542825222299    9.22848065338325    7.90957278764676
H         4.09682140564962    9.97508339328522    8.45061028128024
C         3.15755062827707    8.06212118263392    8.54660497542572
H         3.41986661394384    7.89841879301746    9.58263726863283
C         0.58158221519107    6.16683386052146    9.82055550405309
C        -0.09962775026076    5.22444153469685   10.58957217559121
H         0.15278184617151    4.17088831857499   10.49293924018861
C        -1.09690530708801    5.61504749027940   11.46175378188265
H        -1.61236509370410    4.87714528532393   12.05845512141022
C        -1.43816198497253    6.95488757970235   11.56431322092200
H        -2.22077767743086    7.26208325353710   12.24047476887489
C        -0.77880483064867    7.89482988638500   10.79095489891873
H        -1.04850358959300    8.93762951742324   10.86129978031946
C         0.22769185322701    7.50809111688257    9.92201655759716
H         0.73112503313888    8.25127196574287    9.32116939354466
C         3.28860705047229    5.28048048724115    9.81678353892956
C         3.13257537652526    4.94906073241580   11.15887499552437
H         2.14763698503631    4.90802505951841   11.60130672715184
C         4.24758093059565    4.70510562884195   11.94385283138690
H         4.12030973705395    4.45501421156071   12.98635543625446
C         5.51841183992917    4.79000167008049   11.40123681680099
H         6.38292033735244    4.60454558975486   12.01984323275911
C         5.67950451332160    5.12359316693292   10.06507181920770
H         6.66898299291906    5.19686566413988    9.63980997676668
C         4.57154332702734    5.36160856672919    9.27651325536874
H         4.68396182267175    5.62612697323076    8.23418326958537
C        -1.21322167686016    3.91945840613908    7.74665165932469
H        -1.79865865416719    3.89848182483551    8.65570775979872
C        -0.83274121157155    5.08456695627256    7.04158257622152
H        -1.02416467800149    6.10321323383324    7.35466973234868
C        -0.27755752059369    4.69136783953572    5.79870913727127
H        -0.06770151961252    5.35063047037394    4.96771979096957
C        -0.36281757380371    3.27111636570702    5.71585011745498
H        -0.15363063383016    2.67597576916912    4.83679689874641
C        -0.93561062355782    2.79589441687250    6.91091714703094
H        -1.24295132958102    1.77583284694625    7.10319437917834

