59
CSD_code = QAQWOX | q = 0 | S = 0 | Stoichiometry = C22H28N2NiO6 | MND = 6
Ni        2.15022599432239    5.02773757720896    7.83208415074017
N         3.52007264870722    3.18628253985664    8.57484730598835
O         0.99517303251068    3.80290749595367    6.99168237102472
O         3.29137849767278    5.07799161622423    6.27662470316172
O         4.15206820412209    4.43817670162116    4.31704521392863
C         0.06223513079709    2.22780304301121    5.49421532284286
H         0.50974196539655    1.26233437692306    5.27151158670635
H        -0.46021241297767    2.57681905471886    4.60640089361622
H        -0.64645445656703    2.12289233984532    6.31116786301530
C         1.13964141096391    3.22397209485920    5.87978923052893
C         2.18677930936423    3.41406665397840    4.99144260807195
H         2.23794835330121    2.86614772144775    4.06731975085895
C         3.19656647457026    4.34874539903476    5.26849459475069
C         5.19075919813872    5.38163077011761    4.55931568507203
H         4.75252802514704    6.38210669167004    4.65251398829806
H         5.68169221673409    5.13941723730982    5.50943593541931
C         6.16871307262766    5.31617166877164    3.40003993897681
H         6.97223479357217    6.03067293214270    3.55556950108014
H         5.65853978539167    5.54948016761408    2.46949273380111
H         6.58862090629164    4.31694848062861    3.32207598722459
C         2.95559014902491    1.99575504437952    8.39773300478515
H         1.93646365095895    1.90230381290127    8.74983820226790
C         3.60647073849486    0.92759003556503    7.80044800101768
H         3.10006704896464   -0.01694158731381    7.66950295050589
C         4.91312106378457    1.10084911390924    7.37395062310062
H         5.44998033212950    0.29469032773027    6.89426137917352
C         5.51854836269783    2.32939769276262    7.58446973400186
H         6.54077058356519    2.50230746806660    7.28282343530886
C         4.78471003252276    3.33677061030425    8.19070257495614
H         5.21650319456627    4.31196642523242    8.37581066301291
N         0.77707159139316    6.86695067014581    7.08873799379506
O         3.30630683780208    6.25071652223425    8.67319973529803
O         1.00785494480792    4.97949530173682    9.38641498526885
O         0.14341035227630    5.62440677315308   11.34264869310616
C         4.24300711858139    7.82120431259936   10.17317444808968
H         3.79841233248274    8.78693926422921   10.40040776887919
H         4.76582499943456    7.46728910451162   11.05890392127708
H         4.95095948405953    7.92737005622488    9.35573100808222
C         3.16249329270397    6.82929965813512    9.78534623480376
C         2.11364347171422    6.64197752222072   10.67233280364352
H         2.06249449633603    7.19019565975622   11.59627733492350
C         1.10197602045583    5.70979336552980   10.39388898213532
C        -0.89764457899622    4.68417399247272   11.09801885756850
H        -0.46308263915670    3.68133455131048   11.01333765406219
H        -1.38067624403929    4.92335791697109   10.14313204511260
C        -1.88352437299237    4.75991476246386   12.24989365320869
H        -2.68884540733557    4.04786303591104   12.09241657290925
H        -1.38097494160326    4.52954084535619   13.18528543972208
H        -2.29983022848512    5.76124323614083   12.31949264093416
C         1.33514608888555    8.05881011927439    7.27643043071631
H         2.35638308873570    8.15851996739956    6.93211281678998
C         0.67660508361957    9.12012026104499    7.87756225654555
H         1.17814993846020   10.06588653492805    8.01760887817836
C        -0.63179818629169    8.93865831136839    8.29507491138134
H        -1.17500912333526    9.73954947751641    8.77633313337350
C        -1.23098592112968    7.70915778589558    8.07229062957349
H        -2.25434200972569    7.53000735851125    8.36638593871774
C        -0.48906928894259    6.70869333159707    7.46443026607127
H        -0.91593350651035    5.73303679488700    7.26992003259530

