112
CSD_code = QAQWIO | q = 0 | S = 0 | Stoichiometry = C45H59O3P3SiW | MND = 6
W        12.98648931090742    4.78719521097250    8.76555856011744
P        14.55489669925803    3.07442405310761    9.46651224819573
P        13.10334307609204    5.55245847444264   11.10597289087837
P        11.25994531363833    3.28438991159834    9.56669551809893
Si       12.95363991925241    2.71977720835327   12.08422218206574
O        15.15833893690476    6.67701340544073    7.57502880360083
O        11.00532477930555    7.01937110193610    7.85803441220889
O        12.84982728716810    4.05254879393223    5.74389437891867
C        11.72285473604674    6.20367142315143    8.24390163747614
C         8.93091983150296    1.92748963413598   10.96031777025944
H         8.08631665023205    1.48672613929410   11.47458809645523
C        14.59007937713536    2.49816757731346   11.09496592419886
C        15.75704974548692    1.93234972519978   11.61332499033929
C        16.86837725413864    1.65180344293749   10.83040329240654
H        17.70581302227862    1.17939213134043   11.32835987504290
C        17.02216670118687    1.91268374887102    9.47101880446228
C        16.06732381542828    2.61453205254216    8.75103822699947
C        13.01301119557208    4.57822386721173   12.54758190501038
C        12.97786365341548    5.16127135213207   13.80996251665575
C        12.98756004947266    6.53347289191279   14.00999150759928
H        12.94405391727067    6.87894054100643   15.03439993823373
C        13.05869089205981    7.51211852094293   13.02266009540780
C        13.13719414730889    7.19404063148720   11.67294101307526
C        11.26823417712818    2.61351104713130   11.15922503345417
C        10.09106631395687    2.09135936313788   11.70256465423751
C         8.72904675640558    2.27136985494587    9.62467824021747
C         9.69196909982207    2.95387537295154    8.89616234002082
C        12.93122942112872    1.05551359920664   13.01896045064452
C        12.97441313554915    0.82607933862018   14.38550531323075
H        13.02848649780288    1.65268977428424   15.07378535323797
C        12.95279517273855   -0.45821540402803   14.90236804565040
H        12.98709430670458   -0.60584770065965   15.97237982233727
C        12.88880652128408   -1.54970174585584   14.05469694675084
H        12.87197314647461   -2.55224381568292   14.45643531294549
C        12.84785236258551   -1.34326393849060   12.68602302313442
H        12.79917015849777   -2.18647673228481   12.01197971404004
C        12.86909894556795   -0.05715922305647   12.18132385217174
H        12.83598407031757    0.09017669273228   11.11019961015105
C        15.88001742176785    1.62054728217107   13.07815057507265
H        15.29838576113505    2.31730052057651   13.67471426044567
H        16.92148434411416    1.68473936705041   13.38698585914858
H        15.52675291300977    0.61233679761094   13.28904259583897
C        18.32577437054490    1.49547597622334    8.84108721876665
H        18.68439316406269    0.58448633114745    9.32596298614778
H        18.19398695957715    1.27675480375022    7.78184371606745
C        19.38379235862332    2.59306117216160    9.00749243423149
H        19.52695717781119    2.79107175421294   10.07210870711378
H        19.02301572420964    3.51666197162285    8.54974800031025
C        20.71121692546303    2.19262327310824    8.37723499464316
H        21.09256236320602    1.28157136592593    8.83390470105998
H        21.44994787926895    2.97919177292414    8.51197769759789
H        20.59069231169948    2.01500130533384    7.31056860211206
C        16.19173136940566    2.94624201479397    7.28917279715550
H        17.23183946347064    3.09137338470983    6.99736371703021
H        15.65539789261180    3.88141926745802    7.09038772223389
C        15.55878460291225    1.84062072534617    6.43714476576216
H        16.06942005407057    0.89289971456318    6.62788705438957
H        14.51534827532918    1.72104990995214    6.74816402525756
C        15.61520634481176    2.17081606288075    4.95227588506107
H        15.07090813690252    3.08958855091756    4.74948200116048
H        15.16822225826794    1.37108092199393    4.36630537054269
H        16.64560994467461    2.30150381184876    4.62735090966657
C        12.92293155439811    4.28495096237702   15.02706432618831
H        12.84425398953308    4.87977518347094   15.93383793296704
H        13.82627950450789    3.68051878096962   15.09315876976922
H        12.06246097268972    3.62079406291563   14.97689558488555
C        12.99479815411791    8.94803767420923   13.47692823037539
H        13.34817949472848    9.01771388652199   14.50799973403017
H        13.64114962213395    9.57429118231661   12.86303751975662
C        11.56041362217632    9.49520367523195   13.41172428239667
H        11.58708140190585   10.56477406090821   13.63319887029672
H        11.16904483128633    9.37188130866643   12.40008420014920
C        10.62415713809537    8.80240998844480   14.39304020114825
H        10.55482737055926    7.74010010321741   14.17056771010542
H         9.62693493116159    9.23178563082027   14.32903482899136
H        10.98188358885819    8.92093306333216   15.41401204930583
C        13.34773962068676    8.22940246540572   10.60319541282383
H        12.96928885399085    7.84475905310967    9.65014466245963
H        12.81540227996356    9.15428534712752   10.82526528487587
C        14.84478622138808    8.51907899081768   10.44065112845436
H        15.25621090420791    8.88111775204401   11.38638093785736
H        15.35555956564069    7.58185214150833   10.20033720884941
C        15.10082165138297    9.54130937668538    9.34219850987506
H        14.72827556862779    9.17351949098212    8.38960243369397
H        16.16638381499412    9.73328608073425    9.24179063582310
H        14.60038697839848   10.48092293872512    9.56855890016957
C        10.01162773900770    1.69394027169782   13.14970020400079
H         8.98663483148116    1.77941980222777   13.50477093476216
H        10.64422581853429    2.32684721971185   13.76455800044209
H        10.33090319832856    0.66158782534802   13.28422769777942
C         7.40019366814426    1.87701004901933    9.03377378670671
H         7.21785114221537    2.38945901723524    8.09099962416883
H         6.60198850184345    2.15659930729952    9.72667026660637
C         7.33569497582687    0.36363837043282    8.79433797431241
H         7.47012736707360   -0.16033565164645    9.74287410093707
H         8.15779284535125    0.06677933112531    8.13923974926627
C         6.00925340121931   -0.04544488506351    8.16750102130933
H         5.17913072976777    0.23194129860632    8.81393603453331
H         5.97684437640980   -1.12103093471486    8.00990503820907
H         5.87228506865309    0.44584746423337    7.20640579010927
C         9.51737531123994    3.41132875809917    7.47411740747194
H         8.50061675959769    3.76481494032796    7.29281661574233
H        10.19556422627126    4.25397547752801    7.29266163503346
C         9.86551974587444    2.29606095594633    6.48327466054569
H         9.19436550627880    1.44818762956436    6.63419764801165
H        10.88483899828429    1.95522863046693    6.69066252988003
C         9.76925083025970    2.77538513221992    5.04157648483041
H         8.76246921142254    3.12455068775190    4.82051673687690
H        10.01224259642551    1.96791783010849    4.35472223029412
H        10.46324198397374    3.59352920454619    4.86734244957781
C        14.38704541488321    5.99381009918415    8.09091651450036
C        12.88501570218255    4.23630258767254    6.88056661203149

