19
CSD_code = QAQZIS | q = 0 | S = 0 | Stoichiometry = C5H9AuBr3N | MND = 4
N         2.42764451733547    1.73239434752475    9.78093274920590
C         3.27083599520360    1.73231070541891    8.99831848197942
Au        4.38891182361899    1.73258607432452    7.39794695169233
Br        6.46905262883237    1.73248697890812    8.72611184749342
C         1.33941383927602    1.73231784390408   10.66937062161433
Br        5.61971532532126    1.73188044622793    5.36189638692535
C         1.89323583996102    1.73221769531389   12.09417876067733
H         2.50311337495290    0.84903692836506   12.27035429305179
H         1.06805993291603    1.73187046720250   12.80041190230900
Br        2.20023904583539    1.73191654719461    6.23622226894225
C         0.52719906552931    0.46914856901753   10.37404125329379
H         0.19548867747507    0.46257390001876    9.33798359947754
H        -0.34537684970680    0.44603679334380   11.02047893162137
H         1.12080211124306   -0.42355796894674   10.55789252494196
H         2.50263843416417    2.61566449364288   12.27066022376762
C         0.52711767536054    2.99548135805872   10.37425016381590
H         0.19526835748057    3.00213298141235    9.33823857075489
H        -0.34537093887104    3.01850754183310   11.02080962749511
H         1.12071114407248    3.88819429723481   10.55810084094061

