57
CSD_code = QARDUL | q = 0 | S = 0 | Stoichiometry = C18H30N2NiO6 | MND = 6
Ni        3.37589200859888    4.04370752479083    9.76710188331984
O         1.55439473675746    2.80734020820226    9.07709145561423
O         3.13326138424918    3.61117811367700   11.57040773722373
O         2.21861831009573    5.68069785264719    9.89543576548114
O         3.71057458117106    4.50965860468505    8.02922727476446
O         2.17011096798517    3.69733474232753   13.58127183476957
O        -0.10693720887927    2.63417991562528    7.58898134632736
N         5.52802486462908    5.03724389061265   10.36767223184787
N         4.69260217606280    2.28640353247906    9.58902724681625
C         1.67211571575007    3.93816321503112    6.96187014730297
C         2.89302047014027    4.56867862279064    7.05578075035205
C         2.31587069679100    4.17440210897281   12.31575868781264
C         3.34713387374222    5.39357651768573    5.86480139131582
H         4.33089151697039    5.80953352140969    6.06276123174203
H         2.64490943305366    6.20528486398311    5.69003710422970
H         3.38631855608203    4.77680772990305    4.96945833932694
C        -0.44328146694048    3.11141467436325    6.29596157179534
H        -1.38599420284859    3.66220339201949    6.37561472749587
H        -0.60363032370318    2.24231932577420    5.64944942514740
C         0.71294200271038    4.00032366870804    5.80468517127082
H         1.15121881546976    3.60805546964482    4.88319369172164
H         0.37398398293475    5.01977736566224    5.60538690968442
C         1.10371934752978    3.12381097977343    7.98154772193149
C         1.49676242911288    5.29219775733771   12.08908294328852
C         5.64427739314941    5.34713707125026   11.78596447180417
H         6.64866293195846    5.72902677431432   12.03236064246038
H         5.44676971245228    4.46275980738393   12.38604635290200
H         4.90757569206659    6.10387474683085   12.04949094225625
C         5.76254008234519    6.25145442996600    9.59671435287263
H         5.02536266117726    6.99936283248188    9.88095915504335
H         5.63366475852681    6.03835672606809    8.53890018822486
H         6.77178377836235    6.65707263130684    9.77130224321553
C         5.92816405240985    2.59511129436036   10.31574373165573
H         6.70304993366342    1.84486057455337   10.08779521774705
H         5.70682401235507    2.54751931879726   11.38266158378668
C         1.49724228537055    5.97929154703277   10.88389778339214
C         4.99225708273415    1.91728061945183    8.20772938894872
H         5.65515768752034    1.03955423155620    8.17530354400547
H         5.46711946792128    2.74175409955037    7.68320232772732
H         4.06522824891063    1.67915816034565    7.69072888079925
C         1.17423347587781    4.44694874322888   14.26898742855320
H         1.62409314032431    4.82750869783690   15.19097177999022
H         0.36437060809754    3.76004256063693   14.53349115108864
C         0.69943907614600    5.57268289238095   13.33303335808665
H        -0.37675122050655    5.51733130697770   13.15599112880307
H         0.92107399169254    6.55922976526231   13.74933131249629
C         6.47122921709022    3.98856440377627    9.98540473502851
H         7.44208395090207    4.12158276276408   10.49348762954986
H         6.64030075823145    4.06047426575608    8.91000948780952
C         0.58469579601023    7.18043540207750   10.74794881220586
H         0.72338305156104    7.63098066226633    9.76927259212745
H         0.80649108652156    7.91141551769482   11.52272545790264
H        -0.45150479565778    6.86887306244225   10.85992603392782
C         4.02059677516056    1.15071416262319   10.22188568350135
H         3.08085201630851    0.96148342866960    9.70778673193636
H         3.79316175439381    1.38566543872968   11.25824456049695
H         4.65114886945996    0.25099846352100   10.18019471907505

