57
CSD_code = QARDAO | q = 0 | S = 0 | Stoichiometry = C18H34NiS4 | MND = 4
Ni        0.00005044252958   -0.00008961963020   -0.00016182046882
S         0.92660113231499    1.97339434940249   -0.49472608033350
C         1.13811897604608    2.55739999233541    1.23522335507807
C         0.12096124978936    1.80928423424859    2.11478234774343
H         0.31840070808319    0.70871169984871    2.03128150450037
H         0.28135823658079    2.09850008882318    3.15961531180119
C        -1.33886779842216    2.05404211525183    1.76819650964040
H        -1.97523061948834    1.57960331480495    2.51273083309882
H        -1.56969160908571    3.11809146862468    1.71688361564432
S         1.79492211763574   -1.31473819881900   -0.15506690235695
C         0.93656964673228    4.07348283226108    1.27835721696103
H        -0.02406167952936    4.33404584436835    0.82998282334873
H         0.93010404922193    4.39859121554788    2.32380454600218
C         2.03871538105392    4.80624721818639    0.51759810594247
H         1.87136572000318    5.88330131373881    0.58603951507894
H         1.98441846583394    4.51945680240983   -0.53466195051867
C         3.41561020472328    4.44894712217876    1.06413196866887
H         4.18796142123635    4.97378408894177    0.49856955809836
H         3.49052757354980    4.76324372137869    2.10863419030140
C         3.62709400879088    2.94299740786995    0.96528625021114
H         4.61016406377052    2.66851862358501    1.35450319957040
H         3.57655864001214    2.64471490856876   -0.08347936703725
C         2.54161035119649    2.21177418578780    1.74492741022878
H         2.60652841778277    2.49371587828420    2.80090353937456
H         2.68506681433726    1.12992338114882    1.67897673563363
C         3.31361399490745   -0.46146413734752   -0.70844198562535
H         3.94347303502277   -1.18448177805652   -1.21793420403630
H         3.82234900346955   -0.09637720409816    0.17686047230950
H         3.05318248123452    0.37126694194187   -1.35454974330282
S        -1.79500133377507    1.31422660037117    0.15554334680136
S        -0.92665007566422   -1.97345461433536    0.49478066242548
C        -1.13812098384440   -2.55730960612007   -1.23523135326957
C        -0.12086068100636   -1.80906191892003   -2.11456029171964
H        -0.31836038484718   -0.70852208398848   -2.03103153608985
H        -0.28120166427171   -2.09815431370258   -3.15942341404189
C         1.33898240202153   -2.05390371139468   -1.76805556125105
H         1.97539049351997   -1.57921928317335   -2.51240578980666
H         1.56981726700391   -3.11796025622612   -1.71700313160328
C        -0.93663273302195   -4.07339808274718   -1.27869174046273
H         0.02397368841303   -4.33407118124394   -0.83033860768186
H        -0.93011739262317   -4.39830216321637   -2.32420628534134
C        -2.03877663142114   -4.80637109605438   -0.51813272890619
H        -1.87144522110307   -5.88341313352173   -0.58686063366050
H        -1.98448040739456   -4.51986176206157    0.53420257497673
C        -3.41565674812857   -4.44889121408067   -1.06458709976848
H        -4.18800901147375   -4.97381917429698   -0.49911419927815
H        -3.49060618223021   -4.76297535668424   -2.10915168289892
C        -3.62713501647830   -2.94296182763892   -0.96543059217901
H        -4.61020401387587   -2.66837986978453   -1.35458550936494
H        -3.57656607728325   -2.64489028476483    0.08339318420979
C        -2.54160764262263   -2.21164581669122   -1.74491925702028
H        -2.60650810045232   -2.49340360482000   -2.80094604209264
H        -2.68503645740320   -1.12980482269591   -1.67879765425840
C        -3.31365598920482    0.46110733715778    0.70919393766690
H        -3.94362023661921    1.18432091429321    1.21829155856319
H        -3.82229065857498    0.09546889095565   -0.17593964148725
H        -3.05309463697465   -0.37123637619857    1.35574053197840

