64
CSD_code = QARDAQ | q = 0 | S = 0 | Stoichiometry = C28H24AgN6O3PS | MND = 4
C        11.14373378198205    5.91847309890243   12.73577687750675
C         8.23181171145273    5.49726476501288   10.81674685705712
H         7.78905774075877    5.30968086395260    9.85780036687039
C         8.65537371605752    5.90793796779697   12.92816715344939
H         8.63608351641024    6.11563056170667   13.97788681597415
C         7.61655103355679    5.69815491862269   12.05452882844855
H         6.57092861362317    5.69107460371026   12.28216683742832
C        12.71940105689201    8.01176775997806   10.45024477641499
H        12.78537164880411    8.37876270444047    9.44349620220079
C        12.98360832713322    7.57793652648648   12.58587961624910
H        13.28051311688760    7.48535543073903   13.60860853885217
C        13.53277425508650    8.29345791171059   11.54941029846334
H        14.40057197705791    8.91877201944981   11.58218932873307
C        10.75854935720669    5.10879551563814   15.03487017268491
H        10.58393562830947    4.10124085361280   14.72321943613376
C        11.05734819834021    7.04479959931640   16.03082274196130
H        11.14975945392081    7.85069820558434   16.73142995346271
C        10.73767156204884    5.69972338451148   16.27202364627171
H        10.52529512914859    5.23567762929658   17.21242788832421
C        10.23840550726082    5.78358839629709    6.66390622184422
C         9.59787229850665    6.78172400037206    7.39601630136073
H         9.99625244149814    7.04111457074879    8.37204775287221
C         8.47631902430135    7.40380858375526    6.88251255316887
H         7.98189662408219    8.17942607683834    7.44806386287797
C         7.97994602498293    7.02565659202946    5.64317336463980
H         7.09981032045409    7.50730271306684    5.24374593830037
C         8.60620489923803    6.02382117488613    4.92131634033595
H         8.21399408005563    5.72413310170822    3.96052315168334
C         9.73553865397906    5.40057513155624    5.42644218487748
H        10.21990796150263    4.61564970500167    4.86329126363953
C        12.08882468479444    3.61772217972099    6.40503645620247
C        11.69646618600500    2.37684991832884    6.90021192168200
H        11.21792922611343    2.33234898367125    7.87431061608448
C        11.92778396228350    1.23026444259054    6.16306149085351
H        11.62216859033863    0.26862176080353    6.54739367759514
C        12.56151374222883    1.31634826567321    4.93311868539990
H        12.74804035472684    0.42136109956797    4.35841471843701
C        12.96623201162198    2.54800170568703    4.44367273361003
H        13.46792703233534    2.61096097203181    3.48915400456658
C        12.73284550359124    3.69992665623661    5.17436034920211
H        13.05550068805553    4.65998878709796    4.79718445447357
C        13.01101642340005    6.25142587862128    6.97006524624008
C        12.91461281013919    7.10381802829055    5.87509102481154
H        12.02302874509965    7.09894655728671    5.26363310862751
C        13.95728422630574    7.96603898330113    5.58177363405272
H        13.88175785658288    8.62920957367547    4.73239909043505
C        15.09392633307522    7.98162877625851    6.37380617701998
H        15.90310561568885    8.65753083653310    6.14010286068865
C        15.18911303519611    7.13885057823299    7.47084016181334
H        16.07050349440212    7.15967693290905    8.09397961381512
C        14.14953641554318    6.27880525160626    7.77215050003733
H        14.19627874321230    5.62634437232288    8.63964401406041
N         9.54331674601836    5.57946315061809   10.93155638525235
N         9.80196591681415    5.82973226853615   12.21461404596851
N        11.73957539565126    7.18950962583798   10.79161098987383
N        11.88927722997237    6.95907769878742   12.09958742129103
N        11.09015243177649    6.07799162648053   14.14692342135915
N        11.25236851258449    7.26331261064838   14.74964365090811
O        13.21106195386645    4.78939970370087   11.45297284689511
O        12.63647011692214    3.84233985663655   13.60915214620323
O        11.19834426545827    3.44320625890093   11.67636035646381
P        11.71449926658754    5.06396131898351    7.44863523126273
S        12.16797155911402    4.29740439114998   12.33432622834506
Ag       11.56041326397971    4.89822658245896    9.84797746439300

