61
CSD_code = QARFEX | q = 0 | S = 0 | Stoichiometry = C18H34N2NiO6 | MND = 6
Ni        3.63804850564660    0.53769769568831    3.92821653307265
O         4.87120535703536    1.80740953131976    3.51043974609721
O         4.96390898288484   -0.30657700369582    5.40658966601608
O         7.04094887131910   -0.80787526503484    6.07540787980673
N         2.13088429083222    1.59401058790613    2.47953772479515
C         6.92426929701947    2.84295115881137    2.99278340679444
H         7.32423322768863    2.39778121348579    2.08387389802565
H         7.75052963850179    3.20274020417008    3.59757467485916
H         6.28185080464281    3.67407443040896    2.71327184165474
C         6.11727029329850    1.79358782760546    3.74036002140219
C         6.81153911477103    0.94476938568126    4.58154554188730
H         7.88158589077136    1.02482839001760    4.66794372718211
C         6.17816960897276   -0.06596934472330    5.33684610206312
C         6.45905230502869   -1.85811465946329    6.83687496276980
H         5.84136283035263   -2.48040590187342    6.17777334438039
H         5.80259969151634   -1.42691589007268    7.60335915601749
C         7.57730805790061   -2.66625077252082    7.47023193600455
H         8.21160954279278   -3.09397666094660    6.69880438204668
H         7.15672834350399   -3.46759964131287    8.07128351719069
H         8.18650533925680   -2.02667477131431    8.10326071894796
C         2.84194343357025    1.96604118116867    1.26075436859724
H         3.20043975132327    1.06331659694683    0.77105538226506
H         3.70521720494835    2.57643773606554    1.51240082942135
H         2.18892275412052    2.51910293159045    0.56804946275684
C         1.00193614769540    0.74562108774965    2.11671049349051
H         0.31172490216923    1.27361499213870    1.43955983667965
H         0.45794888339860    0.43493808632182    3.00436528022331
H         1.36922206283298   -0.14926904284439    1.61855122778754
C         1.67376272307672    2.78808138946801    3.18950512373803
H         0.76207112026531    3.19743767294140    2.72207409940144
H         2.45938244331991    3.54175535557145    3.12079109321111
N         2.58178378343854    2.04478288584807    5.37717789905642
C         2.20969416661083    1.33359833052336    6.59586603667442
H         3.11238489712200    0.97495333148239    7.08551933896867
H         1.59920361407849    0.47041952760598    6.34411353455975
H         1.65670394995404    1.98659013249580    7.28865706096848
C         3.43027036828092    3.17361500050514    5.74012306515901
H         2.90233766666889    3.86377290428917    6.41737908555104
H         3.74096491950831    3.71770593666454    4.85253291677657
H         4.32514619246639    2.80620580374490    6.23822046963463
C         1.38775034898327    2.50206499305689    4.66724893405636
H         0.97852235202031    3.41379605072522    5.13471285717873
H         0.63397420665300    1.71654325349903    4.73596208625794
O         2.36839064769537   -0.69541336227289    4.34622425963966
O         4.48208598604922   -0.78819510968485    2.44973868599584
O         4.98348230343395   -2.86527058448247    1.78114801720733
C         1.33308342579784   -2.74837714800228    4.86440971491993
H         1.77767430504674   -3.14528238602470    5.77507867967483
H         0.97553390032834   -3.57679270039109    4.26104737046468
H         0.50048462070107   -2.10646919493445    5.14110349646597
C         2.38240104722070   -1.94153911333325    4.11661017535136
C         3.23103141176827   -2.63583371269528    3.27526902034785
H         3.15111800426948   -3.70590595530556    3.18910570616679
C         4.24136220542344   -2.00242223446711    2.51942130658534
C         6.03377529797913   -2.28341535600167    1.01973658665793
H         6.65602913364897   -1.66564974962390    1.67881550401226
H         5.60259445057911   -1.62702514939277    0.25318857011308
C         6.84189037668700   -3.40169246578398    0.38638171427681
H         7.26971455141360   -4.03589503874653    1.15782957677132
H         7.64316023317725   -2.98115248633069   -0.21480142394097
H         6.20227021253614   -4.01098490421839   -0.24651622414310

