55
CSD_code = QARFIB | q = 0 | S = 0 | Stoichiometry = C16H30N2NiO6 | MND = 6
Ni       -3.94817919181419   -5.60157097652079   -3.69924803591386
O        -4.33630404939162   -3.83034847679416   -4.88364666575389
O        -6.83261362643779   -3.73425810721335   -1.21215014028556
O        -2.89848232274419   -4.64236647003849   -2.56469540730005
O        -5.69213665898839   -5.14697444422217   -2.52489271750668
O        -4.96011619175273   -6.60515930785650   -4.82867721835117
O        -5.73667303859615   -2.63325806585368   -6.15924818076176
N        -3.36479009491507   -7.56852388608456   -2.55488449051425
C        -3.24950546259886   -3.77453106104774   -1.71176413281361
N        -2.02296247315857   -6.25028831094519   -4.85159090543534
C        -5.66380910487891   -4.18907223400428   -1.73899104017217
C        -4.52967746023186   -3.49285223299207   -1.27150193715946
H        -4.69450899513159   -2.70380703573809   -0.55804981304479
C        -5.31669364413889   -3.81893094519729   -5.64058312798290
C        -2.11734494445513   -2.95776153149764   -1.10975789033882
H        -1.16560492041148   -3.44744700664692   -1.29983522298893
H        -2.25937812988810   -2.83236122708975   -0.04037410288009
H        -2.10079854216430   -1.97436550848478   -1.57523733291536
C        -6.07741330975295   -4.92236752651862   -6.08369685970719
H        -6.88129893673159   -4.71970148432864   -6.77030233527744
C        -5.84219121659833   -6.21342468938350   -5.65003889015204
C        -8.00158170209350   -4.38575252636073   -1.67036471400684
H        -8.05385877452799   -4.35871113438216   -2.76169218071308
H        -8.83950753416639   -3.84633794503500   -1.23431737438880
H        -8.01367408055499   -5.43007883547623   -1.34729538112054
C        -2.30657613119067   -6.79589140778595   -6.17386013973004
H        -2.81342539199977   -6.04270483612844   -6.77357753598384
H        -2.96160213010702   -7.65930105355681   -6.09766740226655
H        -1.37794073067942   -7.09445114547420   -6.68563462532267
C        -6.73472823320263   -7.30915706402550   -6.20946458590231
H        -6.20767054452789   -8.25999910292867   -6.19410833804255
H        -7.04973190204199   -7.07804938098340   -7.22204796776931
H        -7.61782361544935   -7.39786803203982   -5.57910791728849
C        -1.37609189292135   -7.25372672141324   -4.00644803876949
H        -0.86892918419277   -6.73237364095751   -3.19348133667457
H        -0.62013560692058   -7.81866651825915   -4.57777688430023
C        -2.38628396264442   -8.23915804123127   -3.41026935538137
H        -2.92722556455250   -8.72612906461151   -4.22275129017359
H        -1.83942177033031   -9.01477098661015   -2.84764637124232
C        -1.16049564301783   -5.08335037114589   -5.00780558930647
H        -0.95713538609996   -4.64501118828138   -4.03435860390523
H        -1.67749953095745   -4.33934499516600   -5.60974540342935
H        -0.21095887766228   -5.34927032246061   -5.49724965939474
C        -2.80580032090100   -7.31608431664104   -1.23213255382810
H        -2.53652913631997   -8.25873074468783   -0.72963450388292
H        -3.53961223638282   -6.79006651907927   -0.62483375430007
H        -1.92115893166587   -6.68957291007930   -1.30539236581976
C        -4.56019925601816   -8.39179150886808   -2.40467861774568
H        -5.01051951118122   -8.56407506004971   -3.37872283450377
H        -5.28216354755306   -7.85853255245382   -1.79013774601838
H        -4.32582746961188   -9.35764686584152   -1.93109437213890
C        -5.02498386440420   -1.49119247231217   -5.72361194432371
H        -5.00857145718582   -1.44237779917523   -4.63192611744901
H        -5.54870199508536   -0.63190863202502   -6.13668959506416
H        -3.99395176907025   -1.51664577600950   -6.08620845255943

