27
CSD_code = QARMOM | q = 0 | S = 0 | Stoichiometry = C7H12Br2N3O2Re | MND = 6
Re        4.60716740185807    5.70232153053873    3.47120808175175
Br        4.84706497451394    7.35464050507468    1.71120706387861
Br        3.58305619665284    7.26419254644912    5.04319429260939
O         3.01134010211253    5.05104351433223    2.98402790217813
O         6.12170736781241    5.80649129483312    4.11911799321255
N         5.33921279725487    3.98208329629099    2.22142525844128
N         5.74708887693485    1.87403516441640    1.81627599689656
N         4.11883896695758    3.46192296936694    4.74468014019059
H         4.33316797505340    3.59920652173078    5.72451412082691
C         5.75937537082453    3.88150125475139    0.93609225910628
H         5.84333471966908    4.74848392315749    0.31224592080057
C         6.02005880294909    2.57203816192775    0.67004435544683
H         6.37031796357165    2.08961188799346   -0.21815471789097
C         5.33099886876280    2.77009219008953    2.73623532059623
C         5.90260466979339    0.45757025431053    2.00138199301498
H         6.29722520312938    0.02239599567144    1.08565366438835
H         4.94242757102552   -0.01165302158450    2.22724359817829
H         6.59653863209568    0.25233492602880    2.81828263372213
C         4.97313116813806    2.44198506799325    4.15298577041532
H         4.49537563062343    1.44870304453170    4.19119503255499
H         5.90430237955283    2.39596717286702    4.72965471542464
C         2.68981770513010    3.30591886345749    4.52913704223891
H         2.16913898550866    3.88350287662091    5.29599979764710
H         2.36685129142512    2.25734659219374    4.57960880717891
C         2.31117572187923    3.90047905571219    3.14428444696377
H         2.57237199222095    3.18633156494350    2.34133595728124
H         1.22650866454871    4.07955284630171    3.10212255294683

