47
CSD_code = QARPOQ | q = 0 | S = 0 | Stoichiometry = C21H23AuN2 | MND = 2
C         8.83157773080690    8.26583730144505    4.00024902764695
C        10.55667719707206    6.86114229998608    4.22197803015585
C        11.55239272827690    5.90350738741177    4.08224158085763
H        11.67266825261137    5.33101279054537    3.17739430043738
C        12.40022112003121    5.69562918766743    5.15145429104238
H        13.18191519115415    4.95606289508389    5.06966738547730
C        12.26779883967074    6.41839787712385    6.33385644462595
H        12.94913019779828    6.22704838302127    7.14863401134013
C        11.28287696210666    7.37321137237582    6.48695995142377
H        11.19777798678307    7.91907597835201    7.41201746256518
C        10.42241662941809    7.59285331775152    5.41955551051633
C         9.28815565928414    6.86797911509121    2.02996551377483
H         8.42883192097864    7.46878604084497    1.70265061802908
C         8.88215313399525    5.39615411695254    2.00587677133340
H         9.69972574999919    4.74840535457940    2.30948403005907
H         8.57848960827712    5.12112609032267    0.99963696241409
H         8.04121748165366    5.23017247287591    2.67581481420606
C        10.46695411948411    7.16943615438724    1.10719700171530
H        10.72588054114008    8.22457346291343    1.16412629602572
H        10.19172885122885    6.93862846932773    0.08184396277716
H        11.34337226244108    6.58365211461237    1.36956925677133
C         8.82045860628778    9.40029461645605    6.18139913006671
H         7.98488785922323    9.88311342718242    5.65669623103918
C         9.85669293153857   10.46852833249446    6.52323036204949
H        10.69930359714268   10.05263765626489    7.06825572838102
H         9.39435303219867   11.23689187797969    7.13663117760637
H        10.22867122177333   10.93348665074631    5.61270319340442
C         8.26782511279970    8.69686271288155    7.41889420759682
H         7.53420656796779    7.94885339095101    7.12586516664224
H         7.77824352425885    9.42424500693896    8.06039796096421
H         9.05345624562645    8.20725680057815    7.98748981996645
C         5.57935396730844   10.01996792002574    2.57443956984191
C         4.56099353836013   10.52946692359640    2.16114995360873
C         3.36617873167240   11.11644596886257    1.67947536503574
C         3.12777635104640   12.48323766713234    1.84104353309420
H         3.87122786270548   13.09271430626126    2.33679500109512
C         1.95764105982757   13.04801540858250    1.37381181146751
H         1.78220028665734   14.10754942946985    1.50423600349276
C         1.00673047903605   12.26433034702740    0.73930000252155
H         0.09129466426940   12.70943137495167    0.37544851741357
C         1.23466989399628   10.90724941066830    0.57357949469915
H         0.49421374734848   10.29309620660255    0.07863971479848
C         2.40229348883212   10.33500736104376    1.03762540117673
H         2.58270104766691    9.27611866880104    0.91026170462466
N         9.55978115451233    7.31164921100626    3.38384102304006
N         9.35272542954932    8.44125054230426    5.23244909033841
Au        7.18235743417216    9.18330659851151    3.26056761282794

