47
CSD_code = QARPUW | q = 0 | S = 0 | Stoichiometry = C21H22AuFN2 | MND = 2
C        11.57113169639796   14.03319813552391   13.28946548940264
C        11.19767345908050   15.05617978639030   13.82021280117294
C        10.76723068366185   16.25290506265031   14.44048063144554
C         9.57143004595011   16.86501917691712   14.05522037862558
H         8.97390988580919   16.41245155882505   13.27687997044766
C         9.15287271947377   18.03453142277120   14.65798741946405
H         8.23169623704071   18.51786311568445   14.36991322763655
C         9.93846635896321   18.59087916387876   15.65097798708786
C        11.12681401168377   18.01081051662455   16.05608901020797
H        11.71213990910487   18.47572706418986   16.83482074244389
C        11.53706737590904   16.84140464249115   15.44786239840004
H        12.46220901855755   16.37014187938681   15.74746968941841
C        12.94132129922315   10.73006599125312   11.58482565969788
C        13.57503276602531    9.25228176799268   10.03211508908724
C        13.83197892770442    8.52311149987100    8.87861317294327
H        13.48010128853199    8.84032834035541    7.91090311997496
C        14.56560018212355    7.36059495892011    9.00210527645415
H        14.78165349940594    6.77622938272173    8.12093345844030
C        15.03418392615851    6.92603193928526   10.23903968766493
H        15.60515418095764    6.01202456989280   10.29566305352575
C        14.78540861248083    7.63973087482114   11.39383945091239
H        15.15879352548487    7.28471921062015   12.34013625543925
C        14.05027350648283    8.81272863295620   11.28441456969425
C        12.21732565050907   11.25927374257866    9.29552257487271
H        11.80082460482434   12.09359886605187    9.87583252353578
C        13.19882546434719   11.82831841950275    8.27369404576923
H        13.99698028438950   12.36532603427012    8.78165477468271
H        12.67850946863598   12.52394773017960    7.62123686016870
H        13.64166397662341   11.04683614584417    7.66279322070116
C        11.06278153428701   10.50018545790687    8.64515206292083
H        11.41764140399613    9.67761845770962    8.03075657790005
H        10.49181128355508   11.17861186776631    8.01740832197590
H        10.40042889894289   10.10041657103214    9.41009171185740
C        13.87105865271426    9.73912170713715   13.63437151019037
H        13.37806515039671   10.64548302700862   14.01105364378107
C        15.36277380162194    9.84033307452684   13.94420019638675
H        15.78355245802237   10.72279985007396   13.46699266213657
H        15.90623243616889    8.96646007574441   13.59624292166343
H        15.50385630127162    9.93054718202508   15.01766085304423
C        13.21313713526954    8.52610951564443   14.28819295418368
H        12.15553277081679    8.49319803154469   14.03533020569916
H        13.30529296458721    8.60310135359877   15.36795726333041
H        13.67439304132991    7.59631603755621   13.96783298805430
N        12.90009604474401   10.43011994976327   10.27035108584393
N        13.63404502344368    9.75170873812149   12.20338571481139
F         9.53078708724657   19.74193381074248   16.24638728036804
Au       12.21224144605189   12.40887565965352   12.45682950652299

