75
CSD_code = QARPOP | q = 0 | S = 0 | Stoichiometry = C38H30Cl2O2P2Pd | MND = 4
Pd       -2.15360092593949    0.00001137151630    6.43608004119273
Cl       -1.40062565769692    1.89285815075040    5.36025465351860
P        -4.13780710528350    0.92317057516740    7.03003094752461
O        -2.43711906869534    2.12956850310856    8.10751283646211
C        -4.47144783941640    2.58555436908920    6.38386022430934
C        -3.50768596033495    3.57653271951905    6.63035417324697
C        -3.64711764738142    4.84706466597030    6.08003272023702
H        -2.88720710446971    5.59213292847065    6.26352327759520
C        -4.75536306362173    5.13912670884468    5.31029253278365
H        -4.87727651130544    6.12620916094948    4.88981220357855
C        -5.70890462690344    4.16013009083697    5.06010673061795
H        -6.56882465398420    4.39225931734598    4.44891893188741
C        -5.56074595032784    2.88436879487182    5.57476638981507
H        -6.29123735690337    2.11915607501483    5.34850201821992
C        -2.36847661079917    3.15124033038813    7.42761122221205
H        -1.48046913734402    3.79387768418625    7.45342265770700
C        -4.86938387207959    0.93537264278769    8.68977952935452
C        -4.20765769312696    0.32670037567578    9.74735415420672
H        -3.24863829102849   -0.14241727970780    9.57150942555430
C        -4.77668654344007    0.32920205191927   11.00798881521299
H        -4.26473053154577   -0.14781592471113   11.83084593592436
C        -6.00089515526697    0.94332077575003   11.21566695189799
H        -6.44559442139665    0.94380841213192   12.20023854008039
C        -6.65457567059138    1.56490139071847   10.16355925952065
H        -7.60510711659080    2.05198284107689   10.32835798222671
C        -6.09130721561341    1.56572334506743    8.90035392162965
H        -6.59315102161262    2.05938981689309    8.07848634444255
C        -5.27704371656526   -0.10690017732208    6.02300620615983
C        -6.48599647215257   -0.64457907029268    6.44412331112292
H        -6.86659408545834   -0.41436007701588    7.42940773266182
C        -7.19603275052842   -1.48941795897498    5.60684426786088
H        -8.13562454811232   -1.90638915951684    5.94028390055530
C        -6.70162715725870   -1.81024856771424    4.35434588565545
H        -7.25669114875675   -2.47684712579918    3.71027516003258
C        -5.48747674769760   -1.28917972332149    3.93214078288599
H        -5.09244186398060   -1.55144874254273    2.96155848018770
C        -4.77527981348933   -0.44641922989246    4.76348331411208
H        -3.81005900199009   -0.04014840756183    4.43632378516701
Cl       -2.90506529073108   -1.89242567327817    7.51416768999860
P        -0.16802967479776   -0.92305630261140    5.84426034147886
O        -1.86867778483051   -2.12953906285581    4.76647922296516
C         0.16537910533444   -2.58553445256207    6.49047747859074
C        -0.79861860181791   -3.57637836770063    6.24409225329318
C        -0.65945888384180   -4.84678817135145    6.79470151579077
H        -1.41959718523806   -5.59169562776658    6.61141424209607
C         0.44884102783123   -5.13902160787592    7.56430459927871
H         0.57061624614158   -6.12606409148774    7.98493342089866
C         1.40268518063188   -4.16026897645566    7.81414462289286
H         2.26271303552491   -4.39264821901252    8.42508920059472
C         1.25471707073258   -2.88447058101547    7.29943635063971
H         1.98539530102910   -2.11938845340226    7.52556670533723
C        -1.93767570365065   -3.15090154880585    5.44672904866482
H        -2.82569054277720   -3.79314005166259    5.42089913233479
C         0.56366780954159   -0.93549045366764    4.18455619415690
C        -0.09795424322990   -0.32687493194816    3.12686087943590
H        -1.05690683754658    0.14238615045364    3.30262550802759
C         0.47112412518683   -0.32957358577547    1.86624092109963
H        -0.04075725354550    0.14738630706244    1.04330370973627
C         1.69527732413965   -0.94382018594514    1.65868528995458
H         2.13999402158110   -0.94446768273858    0.67412329450153
C         2.34887725009703   -1.56533362237169    2.71090151028548
H         3.29936583254401   -2.05254373135276    2.54621201620357
C         1.78555805153323   -1.56596195847217    3.97408112373338
H         2.28729751772581   -2.05953353130753    4.79606333684981
C         0.97134887639186    0.10686331206255    6.85134317047835
C         2.18028973224147    0.64460407082789    6.43021533663280
H         2.56096590597693    0.41423742108314    5.44500693630497
C         2.89019270786371    1.48963391171073    7.26742213771824
H         3.82975160517082    1.90663035259171    6.93398076985943
C         2.39567280502967    1.81059108319693    8.51985178913110
H         2.95061601763272    2.47734815035435    9.16385589064955
C         1.18158086432633    1.28941980227130    8.94208518701302
H         0.78645995633960    1.55179796343558    9.91258436486929
C         0.46952581934752    0.44645905470258    8.11084368370374
H        -0.49557712920874    0.04007163799462    8.43814587744562

