41
CSD_code = QARTEI | q = 1 | S = 0 | Stoichiometry = C14H18ClN4RuS3(1+) | MND = 6
Ru        2.24258732516462    2.95519533003518    2.26891137648903
Cl        4.58090695577588    2.95524644601067    2.41233040590069
S        -0.11867997628120    2.95526293280330    2.32335488260804
C        -0.51443868791852    1.52055126308377    3.40100657647350
H        -1.52271945211850    1.68178082550646    3.78303745748155
H        -0.53285153287715    0.68221083120394    2.70302102891520
C         0.45825013063363    1.25423862019504    4.53067214477424
H         0.31594864111111    0.23822535247288    4.90181024802410
H         0.32450123847454    1.94685349084810    5.35795948983208
S         2.22660945553634    1.34986970843800    3.97795204044804
C         3.02483723852562    2.19184374666241    5.39042294325757
H         2.56531363576012    1.78364394901249    6.29022044968774
H         4.05010383216410    1.82586685508909    5.32016640719754
N         2.47460147615346    1.65670748188898    0.76317237492874
C         2.46714675116126    0.32463429212960    0.80430258548892
H         2.14882240538298   -0.13700804943846    1.73255239999883
C         3.27068579735272    0.24930933753126   -1.42086939182108
H         3.60604510811923   -0.25755124043376   -2.31402121607305
C         2.86055641260558   -0.43842735253345   -0.27978878448598
H         2.85862057371591   -1.51427132007072   -0.23208233474009
N         3.27340516655304    1.56568579953266   -1.46379839856843
C         2.89045077695266    2.22490671991611   -0.39008530100159
S         2.22658124121477    4.56063151570434    3.97791005239885
C         0.45822985979841    4.65625905245523    4.53066561204082
C        -0.51447386857605    4.38995416896853    3.40101358092261
H        -1.52275127119243    4.22871083844142    3.78304730501855
H        -0.53288924992717    5.22829149585583    2.70302505399940
H         0.31592456877148    5.67227092609715    4.90180511303579
H         0.32449281472477    3.96364283141757    5.35795451143932
C         3.02481908443393    3.71868429396015    5.39039897441937
H         2.56529107352277    4.12688724062752    6.29019333434436
H         4.05008126484694    4.08467485726804    5.32014515160347
C         2.89046356545880    3.68557193888892   -0.39006676145507
N         2.47464404260177    4.25375426836308    0.76321582854600
C         2.46717832571550    5.58583391878876    0.80434527432679
H         2.14883915118434    6.04747504163651    1.73259060722688
C         2.86057109453995    6.34890481092487   -0.27974890662099
C         3.27069376768567    5.66117892594748   -1.42083874397105
H         3.60605054313716    6.16804616115272   -2.31398868440757
N         3.27340850893869    4.34480388652890   -1.46377752826307
H         2.85864221117197    7.42474880708900   -0.23203715941920

