45
CSD_code = QARTAE | q = 1 | S = 0 | Stoichiometry = C16H21ClN3RuS3(1+) | MND = 6
Ru        4.54728908922967    8.22106407136240    4.76540232487435
Cl        5.97151101597382    6.37902295609986    4.76489032471471
S         3.18286079572677   10.18628467834819    4.76515559949830
C         3.81933786315261   11.18548350651285    6.18644866265875
H         4.38186693579518   12.02114363131976    5.77368732829148
H         2.93546870624637   11.57468862834836    6.69235617624946
C         4.65780771113307   10.37988400473504    7.15287929803920
H         4.03675311623332    9.69851204244189    7.73747993662467
H         5.19932158441970   11.03688648459888    7.83450908597424
S         5.88321766235683    9.26840672216508    6.36099911527188
C         7.00883849276705   10.46840917556908    5.52741551811575
H         6.75802523874033   11.44782609811370    5.93077699875515
H         7.99280425645898   10.18202896455502    5.89734638405544
N         1.52544815838510    7.42473015005698    4.76526547494861
H         0.51500443099792    7.35536437636053    4.76524352167064
C         2.09705689774186    7.10400029671241    5.99173804875152
N         3.41403419066962    7.26550066641121    6.15357312294253
C         3.97125103871179    6.85383004567822    7.29695015997897
H         5.05075996517733    6.92823338977420    7.35215765064357
C         3.23851375506514    6.34364995669325    8.34850225475223
H         3.73721206819455    6.02393218146601    9.24774147822060
C         1.85727453003371    6.25872067888836    8.22059595713480
H         1.24678934912430    5.88716042443849    9.02773300478779
C         1.28184788799565    6.63273221895758    7.02282240632214
H         0.21771921493111    6.54821433091717    6.86746836567576
S         5.88307293367473    9.26835099162893    3.16947876151957
C         4.65780684511457   10.37996038975160    2.37758545904867
C         3.81942348530206   11.18563340643088    3.34402291955363
H         4.38205825305758   12.02117358160114    3.75688981835741
H         2.93560122666446   11.57497705676693    2.83814058592042
H         4.03670426349363    9.69861824822853    1.79299755319536
H         5.19936899500243   11.03692327854822    1.69596343172222
C         7.00886878344207   10.46824441459377    4.00299209735673
H         6.75831568995406   11.44764222928274    3.59943104407440
H         7.99280654302814   10.18160046390957    3.63320012146628
C         2.09711117503765    7.10402700218863    3.53880594303893
N         3.41410992180063    7.26553477568712    3.37700964590889
C         3.97131872095544    6.85384954099681    2.23361574110582
H         5.05082680632576    6.92825420857588    2.17839606524310
C         3.23857406688479    6.34367858428451    1.18204682968370
H         3.73726444881401    6.02395125532628    0.28280429934690
C         1.85733275341364    6.25875699104308    1.30993614891889
H         1.24684903059703    5.88719479929583    0.50279621839881
C         1.28190355696520    6.63276855220809    2.50770479920978
H         0.21776854521093    6.54825054912661    2.66304431797783

