37
CSD_code = QARWOV | q = 0 | S = 0 | Stoichiometry = C12H14N2NiS8 | MND = 4
Ni        4.01189654600393    2.11647564889764    0.87357021020369
S         2.53363019650423    6.62759840556998    0.54863740117752
S         5.40989589036851    6.65462562558418    1.17707892154067
S         2.47644765419321    3.60279114891872    0.53739376559369
S         5.52074916882244    3.63147210981574    1.20243492022213
S         3.94879700343968    9.22140236786548    0.85697136882224
S         2.45352788155271    0.59115336793334    0.53340984448466
S         5.59764772245093    0.62162808770245    1.21996030266775
S         4.07394501499317   -4.57053009180309    0.88765451543573
N         2.96566802582683   -2.13116845988881    0.64503949270399
N         5.13612489357185   -2.10984501192404    1.11989403361537
C         3.31484827362693    5.07712474385509    0.71995469669844
C         4.65628211023456    5.08976957196579    1.01301984436971
C         3.96335229161350    7.59415541061203    0.86050037711624
C         3.35179141548118   -0.82774338091190    0.72949702914421
C         4.72566376364784   -0.81429672491268    1.02990134946047
C         4.05845646160397   -2.92386135733342    0.88416554209329
C         1.63553973098124   -2.64217967094731    0.35364457381418
H         1.73745160757505   -3.73332581371932    0.37391068955610
C         0.65625549002129   -2.20101572439756    1.43581798193356
H         1.00762313519624   -2.51256038705874    2.41665374226188
H        -0.31151538833850   -2.65831711062430    1.25429607569285
H         0.53737351946211   -1.12086736054491    1.42885826921931
C         1.19599319407379   -2.19654178074401   -1.03664477616154
H         1.08021748424853   -1.11672094150774   -1.07505389825488
H         0.24299461597617   -2.65709427014123   -1.27828370052707
H         1.92648656878555   -2.50134608908194   -1.78236581398289
C         6.47569256814580   -2.59422474341264    1.41321839209464
H         6.39466920298913   -3.68717997601745    1.39783278746484
C         6.90712231416172   -2.13405948973931    2.80135209986289
H         7.86587063837029   -2.58048205751893    3.04730664107963
H         6.17943832741787   -2.44390279001606    3.54790348653519
H         7.00839581685146   -1.05246281720589    2.83314430106623
C         7.44636199872887   -2.13920817948840    0.32899328024265
H         7.09830344891669   -2.45743716314090   -0.65096067278915
H         8.42149705861360   -2.58117194554736    0.50959334616588
H         7.54830435388753   -1.05725315109194    0.33439957937605

