116
CSD_code = QARXAK | q = 1 | S = 0 | Stoichiometry = C58H45F3FeN6O2P(1+) | MND = 5
Fe       15.58943208261102    1.89829240300548    8.72837856226229
P        16.05363272144268    3.42336961249096    5.65645658916996
O        15.67355398186216   -0.03688441158517    8.92841406028745
O        16.36809318715290    2.14860245520080   10.47626867760284
N        14.49339625746351    1.68668789425270    7.13726517919294
N        13.73694259517878    1.86975209330665    5.07283426545858
N        15.54142058925318    3.86614626929408    8.39867252895414
N        15.92305816061406    5.72454214111581    7.26465384110371
N        17.29287714977714    1.82477185018521    7.59954645541407
N        18.37718230726140    1.82901391723079    5.67068252877699
C        14.68483894417461    2.26335082235836    5.95855650087854
C        12.89996323168151    1.00784614383292    5.72707298281261
C        13.38085746686022    0.90577509582191    7.02357867006960
C        13.62403331902048    2.32286970248073    3.71466198794013
H        12.57848466291630    2.30453040869919    3.40928218234926
H        14.19986772475007    1.68554720943085    3.04018050869722
H        14.00605119691667    3.34178930396433    3.64160357301360
C        11.71923933340110    0.40172484124859    5.11720877796021
C        11.80196987061420   -0.27247054796126    3.90100211771862
H        12.75551536554548   -0.37507562579233    3.40456549603625
C        10.67259730503885   -0.84613650151005    3.34527032037884
H        10.74754963633368   -1.37281574669232    2.40619679350502
C         9.45245968021320   -0.75049724159658    3.99263914754913
H         8.57333391156578   -1.19849708894603    3.55636721205955
C         9.36418548742280   -0.08436514605970    5.20488175407157
H         8.41536013524344   -0.01093618719625    5.71358848258135
C        10.48865339634300    0.48830105243368    5.76723081361354
H        10.42357239360594    1.00769055123200    6.71143622349680
C        12.85945083062515    0.14418656679308    8.14998036220068
C        12.23602412295245   -1.08971176941280    7.97979478316256
H        12.14013000260100   -1.50920113774957    6.99030164324911
C        11.76472193024276   -1.78550695676334    9.07754354119508
H        11.29048488828252   -2.74437057404083    8.93774688989794
C        11.91177583542422   -1.26781639372629   10.35370407368722
H        11.54975780794010   -1.81992052588946   11.20646762880438
C        12.53891913599310   -0.04505571912369   10.53389361733610
H        12.66469367241108    0.36123908241517   11.52673042012886
C        13.00399902374931    0.65624057994068    9.43911064935770
H        13.48256417866058    1.62857722471850    9.57082727737459
C        15.82143672342946    4.37340252783764    7.19912023820235
C        15.70466237272045    6.09073019680250    8.56205214700334
C        15.46096665040449    4.91796746959261    9.25902006131158
C        16.16898429174655    6.60099464390549    6.15308315331826
H        17.24040122394101    6.71627277055773    5.97545471734609
H        15.73737673126918    7.57929745504808    6.36092403594101
H        15.70963800337172    6.18767502375726    5.25432843208230
C        15.69456243311603    7.46713236571184    9.04804866591024
C        14.64554883782066    7.89822281633650    9.85942877848160
H        13.84883025175996    7.21249449016221   10.10462387799886
C        14.62441214183240    9.19356216714889   10.33904691647037
H        13.80680578927047    9.51908714931889   10.96352940501380
C        15.64678546077979   10.07297341058834   10.01934800610969
H        15.62794351763640   11.08418921495049   10.39494217638747
C        16.69601369936374    9.64933677621856    9.22151822496401
H        17.49943165144610   10.32779905722364    8.97800336653846
C        16.72302520819454    8.35417053316802    8.73662232288312
H        17.56037424652154    8.02373161545585    8.13990887959293
C        15.16829194063106    4.78961103704110   10.68427022914054
C        14.11310255800398    3.99222380590529   11.11447060907851
H        13.49559119352561    3.49901520615640   10.37739896777034
C        13.83408172340651    3.86626926145808   12.46199149443452
H        13.01492097380607    3.24170913569022   12.78626677155066
C        14.59355832584070    4.55297830255936   13.39428930694124
H        14.37689622761905    4.45551041903339   14.44685071432069
C        15.62875327883548    5.36981111129921   12.97165914986146
H        16.21416888823973    5.91491017440245   13.69606702974825
C        15.92035585310502    5.48692128052440   11.62557676536865
H        16.73717724263674    6.11324301945474   11.29928457585407
C        17.30809256314760    2.29922669653758    6.35606907533982
C        19.07947669136551    1.02124550991802    6.51932049375508
C        18.39552833227246    1.04111670750101    7.72407390255719
C        18.72123621893263    2.16945686054111    4.31809493039212
H        18.40084727541321    3.19084861685926    4.10803587327827
H        18.23252972042952    1.49789939711140    3.60904521095765
H        19.80029002763494    2.09443336408352    4.18884352771322
C        20.31115674334288    0.31574218318802    6.18140968794798
C        21.38835509867571    0.35345540619354    7.06587242426195
H        21.30596296895882    0.92300098226405    7.97874105935741
C        22.55388890690424   -0.32756264234420    6.77178818414556
H        23.38258457002093   -0.29061320344972    7.46198457844565
C        22.66018857671526   -1.05502364136665    5.59724840681319
H        23.57107540141863   -1.58692995803635    5.37049482966774
C        21.59156837840129   -1.10388905812155    4.71826909388243
H        21.66561263196945   -1.67823895304655    3.80734741644893
C        20.42214070606955   -0.42388188364367    5.00562783932187
H        19.58302270423809   -0.49521644444625    4.32973250815827
C        18.82388312515151    0.37051798099211    8.95322106450616
C        19.01429920912000   -1.00775334382575    8.97167740544829
H        18.78429868667328   -1.58978835250194    8.09183005310026
C        19.48757915823461   -1.62435973642101   10.11499776462664
H        19.62657940325182   -2.69402131277548   10.12863782572282
C        19.77939600767958   -0.87214960427795   11.24117625705274
H        20.14997561563206   -1.35641162972242   12.13137206531550
C        19.60322527255357    0.50094721408218   11.22253795053572
H        19.83932024009656    1.08908151235999   12.09688720921260
C        19.12896478227346    1.12320598756959   10.08135471903220
H        19.00283908652357    2.19481972102090   10.04702819172689
F        16.14133669513246   -2.60247082907469    8.65371328912961
F        14.68904750810705   -2.61669040376646   10.24093639263436
F        16.77671091035516   -2.80168876386042   10.69862484238342
C        15.91095561474568   -2.16838863752320    9.89592194761248
C        15.99125030986044   -0.64078783479337    9.99337315384363
C        16.32590521295571   -0.10123149632074   11.21826222570528
H        16.54535326103487   -0.76425161969001   12.03654902207074
C        16.48552585383859    1.29362975783219   11.39787886960469
C        16.84161642640683    1.79154221566607   12.74535552266775
C        16.36632410551422    1.17958406510675   13.90274853881134
H        15.70748668276509    0.32783060757194   13.83216656929467
C        16.71333612714010    1.67897500521161   15.14432134163870
H        16.33611458835419    1.20381169025609   16.03728863845985
C        17.54539883791947    2.78225050135086   15.24697282930056
H        17.82363936694907    3.16021645677804   16.21905780237367
C        18.01570303224198    3.40025005706292   14.09992949290007
H        18.66369378703065    4.26064971161163   14.17609048149286
C        17.65546175099151    2.91665327099344   12.85729571254747
H        18.00598086203338    3.39512978486383   11.95616763973443

