44
CSD_code = QARZOY | q = 0 | S = 0 | Stoichiometry = C16H21IrO4Se2 | MND = 7
Ir       -0.86309867869989    1.73356788800250    4.74819133739792
Se       -1.30036963313388   -0.54956560336737    5.06052657530762
Se       -1.56585395929869    1.52567123729401    2.52247112054425
O        -1.89515709920206   -3.32918731432333    4.22659883308758
O        -2.82435087814350    0.20462705504172    0.19502506867323
O        -3.41627188490730   -2.80628132560881    2.65501257136002
O        -2.04101311067519   -1.86414214956505    0.59891469470466
C        -1.95200382548649   -1.13083149609174    3.40411719803116
C        -2.00534607894010   -0.28752574079675    2.33928806142560
C        -2.38506539038881   -2.53273080813919    3.46136953435792
C        -2.35962426709557   -0.61426247952146    0.95265356575218
C        -3.87829560833240   -4.14780187633109    2.67610419929556
C        -2.35991630028659   -2.22858511227926   -0.73490183180849
C         0.82303885041995    2.50966544549156    5.95760035407289
C         0.51358516438483    3.47518381091369    4.92759059812536
C        -0.81493486399811    3.92825032184293    5.13874468360403
C        -1.33935621207171    3.24590787130160    6.29661635776058
C        -0.31282534008641    2.38996220757131    6.80999890891638
C         2.16104567820717    1.90152964951360    6.21840577901338
C         1.47434282189875    4.03728757059635    3.93221773295734
C        -1.47794496076068    5.03555715205017    4.38539710657310
C        -2.64620514675296    3.53951723766105    6.95639855834889
C        -0.34877348906833    1.59987273432697    8.07936845079588
H        -4.81747307571162   -4.15551939366882    2.12840918637178
H        -3.14974977666103   -4.80365231760962    2.19460163367967
H        -4.02711697215264   -4.48032428716764    3.70581289599308
H        -3.44200007835456   -2.32014419109447   -0.85081574541072
H        -1.99265793899212   -1.47200186789091   -1.43178858958876
H        -1.87575009468976   -3.18549485970592   -0.91367170536773
H         2.05630869939615    0.94093346192093    6.71699491952516
H         2.71648141961311    1.75609218377333    5.29514080972053
H         2.74294935171807    2.56155906277178    6.86452809727438
H         2.26487810315912    3.32721272167803    3.70393569538668
H         0.96381124087766    4.29650963762868    3.00729010156213
H         1.93325870841099    4.94212814029473    4.33452345023891
H        -1.08764433293271    5.99782773311448    4.72025610987301
H        -1.28653340837407    4.94200645534705    3.31757337388378
H        -2.55307723857648    5.02819947439269    4.54069706528207
H        -2.52222302921999    4.36159054158895    7.66382785227003
H        -3.39721557142521    3.83096530161504    6.22609731985345
H        -3.01433325333661    2.67276677871332    7.49992015762327
H        -1.33950796326167    1.61966982189805    8.52360756800530
H        -0.08040389959350    0.55930958256389    7.89307879830216
H         0.36219332251782    2.01337974424295    8.79537154723382

