38
CSD_code = QASBIV | q = 0 | S = 0 | Stoichiometry = C14H19IrO2S2 | MND = 7
Ir        3.03402418278691    2.53977092788115    1.74205675897025
S         4.28733650357040    4.28376198284543    2.45096040775076
S         4.46152488691481    1.20022609204928    2.92301368559658
O         7.44782952562567    4.14550847028280    4.73265947927579
O         6.28229248335019    5.78671488123919    3.73286258563851
C         5.54417558913185    3.59676119248210    3.43316271582670
C         5.60242769486598    2.25388013369917    3.62606785958997
C         6.52385060700149    4.50277018917225    4.03818522533260
C         7.18589168711023    6.73132575095895    4.27748430716125
C         1.70063681308393    3.37758036501531    0.16103491056309
C         0.92793846424065    3.12834854604356    1.32852607191573
C         0.97636112003411    1.70920579909709    1.60325004317230
C         1.77282006953597    1.09197966503972    0.59743323711216
C         2.24122933086156    2.12076436944926   -0.28751155400346
C         1.78167954778466    4.67999569485700   -0.56763400079330
C         0.05509525844462    4.11793823048949    2.02753408652119
C         0.15763938479026    0.99580969731170    2.62851052841148
C         1.94331555423825   -0.38077660932827    0.40506652259860
C         2.97164533793246    1.89875093497981   -1.57055774293711
H         6.37300342057481    1.80333501416520    4.23213408221535
H         7.16292720162674    6.69397996834283    5.36903685161894
H         8.20410773188795    6.52051222374577    3.94259136450091
H         6.85853073538382    7.70465309314289    3.92068089638936
H         1.82649182051827    5.51185040509977    0.13105042477075
H         2.66324573682913    4.71965256837990   -1.20149656095316
H         0.89928766995843    4.80724664510468   -1.19706492835619
H         0.47136411139074    5.11942038185950    1.95845134549846
H        -0.93345942349363    4.12475186303044    1.56513590693902
H        -0.06415373996806    3.86406774303183    3.07787422595193
H         0.01125368533655    1.61096458628574    3.51273073997186
H        -0.82341370303512    0.75871903070140    2.21357477950636
H         0.63449958464587    0.06644215561301    2.92818264053599
H         1.07966917134979   -0.78753534803248   -0.12333999291453
H         2.83466366823170   -0.59857259856968   -0.17656164429623
H         2.02932269414800   -0.88887749272861    1.36233774010724
H         3.62236423480130    1.03021646618440   -1.50599423432806
H         2.25316901488243    1.72742017565871   -2.37420564022203
H         3.57521234362588    2.76383680541888   -1.83332312463907

