46
CSD_code = QASBUH | q = 0 | S = 0 | Stoichiometry = C21H19FeNO4 | MND = 7
Fe        9.08740523362090    3.43576258762227    1.89778601103147
C         9.71055358429252    5.05710605836259    2.33161863170819
O        10.06672947910662    6.12285125758538    2.55040656301589
C         9.82945927850747    3.32966971320000    0.30643634001243
O        10.28382429410143    3.33769938984596   -0.74811239167761
C         7.53221088938481    3.76121757425565    1.12148586592918
O         6.54061465799977    4.04313192414685    0.61278919183160
C        10.63842833067810    2.30876782476759    3.00353019863958
C         9.51171002303029    1.44994038103031    2.79280514268755
C         8.24824782837578    1.80941042516333    3.33002954799427
C         8.16871123339015    3.16569331237605    3.82856562556765
N         7.15143127213065    1.00400625555555    3.21539690051587
C         7.13905758031323   -0.05993033294623    2.23435750817241
C        12.08400833109974    1.22791313729155    1.25635722852323
C        11.94460799506263    1.97479829383844    2.42867828141250
C        13.10595494642105    2.42431063857181    3.06059317979948
C        14.35545182431714    2.13090670214489    2.55060097422434
C        14.47565390010660    1.38130078763611    1.39242497894430
C        13.33347887159238    0.93399259331620    0.74803900461320
C         5.90018183389893    1.43182173532037    3.72302120567596
C         4.81409490181431    1.64591792065923    2.88717297746006
C         3.58932026116178    2.03512021445112    3.40304424988636
C         3.43604381422215    2.22298621458063    4.77193684864153
C         4.53171817687695    2.01000031781957    5.61287383413381
C         5.74466637771453    1.61683511150641    5.09593731781305
O         2.28388402978130    2.60386680778275    5.38510163138387
C         1.14778937376417    2.85062948531156    4.59195432075363
H         8.84562560929251    3.42121499319760    4.63868857662323
H         7.16488433226840    3.50980436777162    4.05995100555993
H         9.64998550529478    0.50141128345661    2.29166387743091
H        10.73354525372589    2.77171206099385    3.98432866674245
H         6.15757419091997   -0.52768015060584    2.23266354109569
H         7.36131953235974    0.32147388516592    1.23043928943575
H         7.87681596009977   -0.82156345154292    2.49428579722118
H         0.83376514218951    1.95323214390922    4.04903730364047
H         0.36219410676432    3.14322316992236    5.28663052476591
H         1.32297577224085    3.66432799909602    3.88101380315595
H        11.20525467420872    0.88957685572020    0.72675643450789
H        13.02130221348507    3.01419479725253    3.96287625988809
H        15.24007518812518    2.48938969378189    3.05670316734555
H        15.45140580063028    1.15222411056808    0.99055772079429
H        13.41936494891169    0.35646159315528   -0.16114854244390
H         4.92002091930204    1.52346923882969    1.81979730008963
H         2.76816998322669    2.19666726294568    2.72312152521908
H         4.39979496726035    2.15668940547170    6.67289264557428
H         6.58698757692780    1.45044440971378    5.75020993466165

