59
CSD_code = QASCUK | q = 0 | S = 0 | Stoichiometry = C26H21PPtS10 | MND = 4
C         7.70767463926254   -0.70318291941459    9.65420453609740
H         7.86281436595752   -1.62377237049104   10.20988466554089
H         6.64923183094890   -0.45952997557474    9.60717979079406
H         8.27279875449303    0.11452808108278   10.09496598373152
C         9.97053126714614   -1.24321195526585    8.16405036592525
C        10.90599754223614   -0.34377962273453    7.77498025045476
C        12.22777194809274   -2.44354936177188    8.65669746885313
C         4.14679297837550   -3.51125960004219    7.01470341629260
H         3.75585269402578   -3.83153654529611    6.05350087028481
H         3.49813703992356   -3.85163856125415    7.81515927556459
H         5.15641990055167   -3.88115307070542    7.16386837362250
C         5.32247864536624   -1.31077021724582    5.86534718233134
C         6.00239132673437   -0.14409397119030    5.86716091629208
C         6.93130014875755   -1.47007568487935    3.80323479184925
C         9.56687217076872    4.42203579198581    6.59213458625667
C        10.19850952042240    4.39287505707057    7.83216313421938
H         9.81926713277148    3.72348502676949    8.59548388147500
C        11.29794981774445    5.19463953625730    8.06830410988388
H        11.79416076589549    5.16504644572117    9.02655464845117
C        11.76641519630962    6.03289538045433    7.06838186056477
H        12.63001099341166    6.65549833015527    7.24806339790857
C        11.13060524059161    6.07332459625595    5.83861777235549
H        11.49609343336812    6.73002183300904    5.06309932649916
C        10.02762830709045    5.27303417393896    5.59587111658053
H         9.53409225334445    5.30311564957911    4.63476770375423
C         6.83728788225031    4.43133468732106    7.19278588474322
C         6.47730101296695    5.64040649387165    6.60605742912587
H         6.91326508326725    5.92942781943512    5.65954673808194
C         5.55981036916486    6.45929016813988    7.23752474567125
H         5.27007683006761    7.39431143922895    6.78137405440914
C         5.01304224219997    6.08239157859765    8.45469601215333
H         4.29440893344094    6.72433911222865    8.94182971521854
C         5.38685716412701    4.88766110346022    9.04825378968836
H         4.96215198441262    4.59892398324194    9.99771911174570
C         6.30233727094128    4.06285919879059    8.42051964171115
H         6.60291876982644    3.11963580181965    8.86298118235572
C         7.72447996499686    3.27191599604958    4.65345189850664
C         8.75332938664084    2.85168318039192    3.80967180860093
H         9.74681232445487    2.71128258740614    4.21614745886737
C         8.49015667843799    2.59810340718592    2.47732964805103
H         9.28287901556809    2.26615807845289    1.82424924038238
C         7.20200612808865    2.74824163439499    1.98572765649942
H         6.99581647754195    2.53749326827096    0.94719708449202
C         6.17615430289988    3.14882149203626    2.82645123689009
H         5.17139676203750    3.24934228195987    2.44338090039647
C         6.42932984106991    3.40384789037841    4.16298641854305
H         5.62852445835191    3.68987437548674    4.83059083410162
P         8.09260660053882    3.37987230798677    6.41809260236411
Pt        8.24125301311839    1.25524263858228    7.18099624492217
S        10.61218039600583    1.22226925828986    7.14061275686988
S         8.24889664782149   -0.98379366749047    7.93285695600084
S        12.57186973773589   -0.85411103552548    7.99368162496552
S        10.52346912569008   -2.79295115101739    8.77925064637634
S        13.38959848493453   -3.48433157171902    9.11944196999599
S         5.85341778520901    1.09747209887061    7.06331648061672
S         4.14170696176403   -1.69535804806537    7.10195611392763
S         7.16348576657567    0.08261143416357    4.56384048935644
S         5.66753482862304   -2.41902574562601    4.54691595066076
S         7.77333985562228   -1.96538814302719    2.49848624813854

