47
CSD_code = QASCIY | q = 0 | S = 0 | Stoichiometry = C14H21PPtS10 | MND = 4
C         1.97360825944322    3.84208020330204    4.81917839139640
H         0.95482856129367    4.12769559584532    5.09427862607545
H         2.12083054347345    2.78652528181261    5.06345698395614
C         2.99167971297737    4.69568756529214    5.56458167194918
H         4.00113068124561    4.43463033361785    5.24794750464969
H         2.91445329632262    4.52997080377117    6.63628867150235
H         2.83793560040422    5.75303575032218    5.36378060797525
C         1.10389891482343    2.66470818029893    2.31126760449926
H         1.24358524137560    2.67211370470141    1.22697807325212
H         1.53218792548558    1.72829032451407    2.67881086562045
C        -0.37435712519628    2.74866102840806    2.66873702385940
H        -0.51964564588487    2.76234707462394    3.74584011173711
H        -0.89146137644450    1.87836321979676    2.27065483873360
H        -0.83574194294668    3.63502829583141    2.24158195053985
C         1.31250607425457    5.57867253945354    2.56577856684157
H         0.26719772447473    5.54934975867010    2.87923396156059
H         1.81964095527643    6.37329025384856    3.11798900353693
C         1.45191330931547    5.82033593539542    1.06721411987808
H         2.50215411236837    5.70122825731179    0.78225027657276
H         1.13334608392538    6.82571266148251    0.80392063437821
H         0.86070228046769    5.10744088579830    0.49757283282049
C         8.41387475062892    7.89082658353990    1.69653330844244
C         6.20862912110564    6.60245245519104    2.32911179088478
C         6.97624692282680    5.72057679748877    1.64628065661854
C         6.27075179461594    3.98140263008982   -0.36952515547188
H         5.54438699911390    4.73147547511616   -0.66900543675472
H         5.91041577006490    2.98275903810078   -0.60216525096145
H         7.23155484909520    4.16112468536378   -0.84356283246616
C         6.43663147394340    1.18070929265883    4.97192740872936
C         5.27578648332560    1.33162139796216    2.61991046081742
C         6.43198544287492    0.67018486332846    2.40086169447733
C         8.70399843841486   -0.02908981888753    1.01781099740852
H         9.13100247187545    0.89905073877963    1.38515839858871
H         9.10527264861282   -0.26697317899296    0.03801837589418
H         8.89706684877861   -0.84423641716812    1.70909885551636
P         2.15403312705135    4.00890957401109    2.99896589224637
Pt        4.30258189807803    4.05851344503024    2.23967581876830
S         9.56635586964478    9.02106977356213    1.49017901712790
S         6.90161081073286    8.20381560188484    2.53111643193903
S         8.55815715785941    6.25718110203929    1.10187885448185
S         4.64786422106009    6.30259394818574    2.96886582856975
S         6.52096575827774    4.03665925504232    1.43447603368551
S         6.84855476369133    1.34716500292463    6.53981466802872
S         4.94698299970281    1.78446340049879    4.28970949514119
S         7.43005990713637    0.33622073743452    3.80723367007094
S         4.14895569662116    1.81516813536071    1.39998047574636
S         6.91288058842109    0.16818782736753    0.79070822113205

