53
CSD_code = QASCOE | q = 0 | S = 0 | Stoichiometry = C15H30P2PtS5 | MND = 4
C         8.61614020028993    7.64112077168963   10.63530437990302
C         9.34709874473859    7.02245998358952    9.68595584473691
C        10.80112721115854    9.05309354743540   10.44362141224555
C         4.43531440170443    5.42706622349188   12.47642638165664
H         5.06315015002769    6.26891394810024   12.77824189565814
H         3.40364632026925    5.64721380180933   12.76058454562525
C         4.94266641629033    4.14899750115231   13.13230040251410
H         4.33713111754157    3.28994345395799   12.84914879042811
H         4.92330280807585    4.24199433045069   14.21574816204367
H         5.96975303054696    3.96481264809663   12.82102382064705
C         3.85624582481017    6.94279246046434   10.11299979915153
H         2.78109836371082    6.97794517671018   10.30328693369229
H         4.34368742199333    7.70777521225294   10.72240748227735
C         4.16572302332385    7.18523464116361    8.64014999060632
H         5.24000958376456    7.04602267557152    8.46928822180646
H         3.90113551214666    8.19920927196673    8.34971485661209
H         3.62123544168045    6.49085794241785    8.00278708755221
C         3.22193527882632    4.12931532485624   10.16525341073311
H         3.04373747923373    4.30128317247523    9.10004807720606
H         3.62419210596299    3.11950635355034   10.27547626026576
C         1.91146423690956    4.24492372440197   10.93350793824779
H         2.03297746083209    3.94165420170006   11.96968726799212
H         1.16629015180793    3.59385352983829   10.47961435120540
H         1.52414185130969    5.26047297648491   10.91256006544390
C         5.29545474361280    2.78067810254799    7.46388688316180
H         5.45524431023445    1.77517816741187    7.06922841721700
H         4.36317335040663    2.77412835677568    8.02978742907134
C         5.22760858451347    3.81445416403297    6.34657078203887
H         5.21161729205800    4.81697998699220    6.77465848438371
H         4.33423112649578    3.67653247356347    5.74094216001677
H         6.09645128647339    3.74139730384942    5.69719676652932
C         8.17642945092073    2.80285782807570    7.65106087258299
H         8.31895805027625    3.62595007505310    6.94622132046106
H         9.00891900699273    2.85455224012755    8.35705964658921
C         8.18679565184259    1.46817307231530    6.91683209508739
H         7.98201480801257    0.63796921988685    7.58861470808760
H         9.17152027017551    1.30980933064653    6.48222758128938
H         7.46162946148173    1.45015708642957    6.10751221985044
C         6.58588254742193    1.85080008643210    9.87840961840455
H         5.60481629497680    1.91121936564551   10.35660371705215
H         6.67122661019411    0.87287119628094    9.39986151955248
C         7.68099688145107    2.06509728711535   10.91745826054826
H         8.65790696749579    1.81059873992760   10.51449751398843
H         7.50584314890035    1.45946335933091   11.80373954573302
H         7.70045142278671    3.12126683085192   11.21085858245345
P         4.55564563668092    5.32562368944329   10.64497249000900
P         6.66481401660205    3.20116882308911    8.62625880095561
Pt        6.72018408076160    5.22491406536045    9.77451683914900
S         7.07267118555286    7.07403370875943   11.16588247687990
S         8.81936728278056    5.61207350643217    8.83678427466143
S         9.31965720828939    9.07300709650090   11.36617114505702
S        10.90770493183307    7.73128636542684    9.30874453100907
S        11.97848025382246   10.16979559807481   10.62510393995651

