62
CSD_code = QASDEU | q = 0 | S = 0 | Stoichiometry = C27H28Br2CuN3O | MND = 3
Br        4.10916620988463   -1.29394609900484    3.82155216528737
Cu        6.11010894754097   -0.20426641171639    4.20050183249564
Br        7.30377846588563    1.67383275711043    3.81589158662493
O         5.05367973110418   -5.63515514867940    7.51873942565377
H         5.79871264603312   -5.27713230607746    8.01424087694698
N         3.07264960147321   -6.61017332063284    5.52652511046247
N         7.07936253083547   -1.59927477215381    5.20605100699517
C         5.27440015048302   -5.40456681746827    6.14102237487212
H         5.89861140168415   -6.22423209607071    5.75134016907046
C         5.98599642749119   -4.10387973902523    5.83706238134941
C         3.92093231466637   -5.36442694305449    5.39734261044153
H         4.15094413866576   -5.26300907107122    4.33298109209716
C         1.40798470245589   -5.22091719835950    4.29418667507392
H         0.33757802953955   -5.39986578211540    4.14266383484246
C         3.14255779707492   -9.13401502720871    5.42713114063425
C         3.91433646245636   -7.84074327362544    5.47144180000226
H         4.54355211308594   -7.76395067195015    4.58116919170594
H         4.54296828917748   -7.83705382562878    6.36360969535196
C         2.74008879157934   -9.68807037704345    4.21097822136073
H         2.98442582248046   -9.19272327473843    3.28363229979223
C         6.84010574678054   -4.92226969491355    3.62130151682444
H         6.42481460576422   -5.90855959599169    3.77298161693005
C         6.67993778513676   -3.93077182108983    4.60875993492998
C         2.86703268420187   -9.81507451363032    6.60235353728783
H         3.20750613099035   -9.43338122297633    7.55478728875342
C         5.96234443683929   -3.05448653995328    6.73381930128791
H         5.47981551205862   -3.14691936363749    7.69551409266364
C         2.10927394018514   -6.59146927568112    4.39815516454349
H         1.39063981416393   -7.39526970761393    4.56634954528540
H         2.65469484837781   -6.79628196989300    3.47594016264999
C         2.30788312425845   -6.57582060728407    6.80139669625334
H         3.02346496286653   -6.36323469380733    7.59514622183244
H         1.87505782657520   -7.56320166056623    6.96511879859168
C         6.52530867703132   -1.83246760174613    6.38480951721440
H         6.48150603110444   -0.99164152327025    7.06416247044099
C         3.07131955817070   -4.17543368675560    5.84449408173443
H         3.34781598043210   -3.29540194482192    5.26476308221749
H         3.24875089313925   -3.95889078920301    6.89739272423967
C         1.59906568981748   -4.51851752849867    5.64209552387828
H         0.99277803725319   -3.61499640720842    5.68464425227946
C         2.16328863971619  -11.02208910629945    6.57100548570613
C         7.94709373690130   -2.41587927907366    3.16060508063655
H         8.36833375570958   -1.43429316808892    3.00030732569925
C         1.90144636501187   -4.40123393876403    3.12400740863428
H         2.21207340805682   -3.38917481323263    3.33344840435784
C         1.74186622831808  -11.55474394842037    5.34787743129335
H         1.19932353285151  -12.48722018451808    5.33122992666224
C         8.08763430086760   -3.40934116182192    2.22704986127173
H         8.62522134026487   -3.22220424433263    1.31046250405507
C         7.52596852434166   -4.66644784618468    2.46172567646754
H         7.63315985982612   -5.44403481480283    1.71963576716207
C         7.24129189909815   -2.64903607660226    4.35186987050615
C         2.04244382371661  -10.88706645105654    4.17873617921782
H         1.73808744402422  -11.30104865255725    3.23001008140714
C         1.94278767255449   -4.85693810956275    1.88580299465322
H         1.62415296045129   -5.85234013232262    1.61145986677001
H         2.28990525098669   -4.23277610191286    1.08312670231747
C         1.21066951127939   -5.50768155244408    6.74058907799013
H         0.23837634971215   -5.95407686039894    6.52641890556729
H         1.13823726895477   -5.00336244085787    7.70317935373949
C         1.88446400474142  -11.69689447634430    7.77917644975052
N         1.65612326381144  -12.23395709338240    8.76712662514719

