63
CSD_code = QASDIX | q = 0 | S = 0 | Stoichiometry = C26H26MoN4O6 | MND = 6
Mo        4.83785596378891    9.92699655986813    5.40238658519939
O         3.27833162167821    8.86175025082612    5.03193581531093
O         4.07535484211538   10.99697038621565    3.66277783776386
O         4.11034810514168   11.07234274150698    6.33256330527920
N         2.76312977722105    5.46294352373993    4.61004433974498
N         2.45398195362089    6.67995720244399    5.13074104324841
C         4.44818262957391    4.41171737734352    3.22380973090314
C         3.85895440193966    5.58678506289640    3.91370616607201
C         4.32539240379255    6.94245432149993    3.95046725665781
C         3.35996234009836    7.61325851363172    4.75227312803646
C         1.36887317432797    6.82880775113755    6.00925728141172
C         0.33353020067580    5.90188402816531    5.95547665181035
C        -0.73705821281718    6.02406859839410    6.82105326620799
C        -0.77745594116559    7.06373776207063    7.73592241156374
C         0.26316181000412    7.97700275498583    7.79152544257338
C         1.34487565652636    7.86694744167653    6.93541678017733
C         4.23516067265984   12.21381127849531    3.42919211604081
C         3.21614039812149   12.93344295527148    2.57498971508844
C         2.10065380126907   12.00080365862122    2.12140516170761
H         3.82161363121001    3.54582110064495    3.41667355769099
H         5.45239020442232    4.21457247147158    3.59349233255643
H         4.50400737163006    4.58141588867709    2.15001020908810
H         0.39187162857237    5.09632561391774    5.24123482005445
H        -1.54243736827916    5.30601820420594    6.78039155370355
H        -1.61601971402941    7.15854585181903    8.40939229307096
H         0.24029907284602    8.78010785502597    8.51215631357142
H         2.16543378210791    8.57373217192443    6.99298759492026
H         3.72433006864369   13.37696608976503    1.71551111340683
H         2.80490648655316   13.75195890823518    3.16998890396430
H         1.35229380700789   12.55113371594708    1.55653287030850
H         1.62643305171005   11.54133395505747    2.98600649162844
H         2.50066791545945   11.20710064824003    1.49448010184851
C         5.44048922347606    7.64021253475032    3.42911344764165
O         5.60032493453911    8.85704650543070    3.66274354614206
O         6.39738042589153   10.99224311357141    5.03191726458589
C         6.31575167248667   12.24073525007781    4.75225425505136
N         7.22172431627338   13.17404028124552    5.13073228677427
N         6.91257306526657   14.39105616043836    4.61004295018907
C         5.81675465020522   14.26721407782952    3.91369455729975
C         5.22752675102374   15.44228104624609    3.22379886841215
H         5.85409709329335   16.30817673484380    3.41666170106614
H         4.22332173762204   15.63942706842223    3.59348827583298
H         5.17169479151586   15.27258468429047    2.14999928057659
C         5.35029050208406   12.91155521742217    3.95049756433571
O         5.56535584002801    8.78164682907683    6.33256521613828
C         8.30682682002314   13.02519236052654    6.00925784028746
C         9.34216654042139   13.95211973088751    5.95548248225765
C        10.41275739218654   13.82993124258143    6.82105531293537
C        10.45316022972349   12.79025532266503    7.73591656624921
C         9.41254329587632   11.87698908358832    7.79151741121023
C         8.33082823737001   11.98704743127971    6.93541094655992
H         7.51026713128927   11.28026602129522    6.99298583624009
H         9.43539994329728   11.07389050700959    8.51215572770531
H        11.29172016690171   12.69545075699340    8.40939181184012
H        11.21814134247885   14.54797587523016    6.78038712642086
H         9.28383178016766   14.75767048577866    5.24123143395025
C         6.45955965238303    6.92056139060437    2.57498981498879
C         7.57505073848437    7.85320061324089    2.12142137300259
H         8.32341706639879    7.30286285263428    1.55656602397705
H         8.04925519700615    8.31268330088807    2.98602489266112
H         7.17503770805901    8.64689184242855    1.49447880678351
H         5.95140249307636    6.47703126701535    1.71550543116218
H         6.87078372472230    6.10204576802383    3.17000975708520

