177
CSD_code = QASFIB | q = 0 | S = 0 | Stoichiometry = C66H103NO4P2Zn | MND = 5
C         3.32058363117056    6.86617207416714   14.32922640606998
C         4.04544438418212    7.71762336695379   13.45682091246243
C         4.25962569157206    9.05546894062057   13.87696152383264
C         5.03721178115907   10.02522888202560   12.99297093865364
C         6.47539780611115    9.50889546245379   12.86140487492401
H         6.97656365605924    9.56621754328655   13.82563729424789
H         7.03450299698275   10.10590722525554   12.14306277784042
H         6.47979451331216    8.47403013860428   12.54126548495666
C         4.35705195287607   10.10901040513824   11.61905449664038
H         4.93882102540363   10.73540278875102   10.94419983818245
H         3.36213162691127   10.54021273389769   11.73049842616681
H         4.25976579406375    9.11759399021957   11.18924859958681
C         5.10261628625958   11.45123152474811   13.55217800749871
H         5.63199995307057   11.48265985088871   14.50133751477477
H         4.10830006045736   11.87396469856196   13.68287623357283
H         5.64575173636360   12.08089257741005   12.84909530619841
C         3.76911317754797    9.45873350110451   15.10508344339317
H         3.94552944216627   10.47313078036034   15.41189540019656
C         3.05774575681772    8.62695676999724   15.96418362807803
C         2.50012777076763    9.09666010232644   17.30135160302872
C         2.86992785259212   10.54767025975057   17.62130054829481
H         3.94919329094348   10.67326650517549   17.66713702764970
H         2.45774657037816   10.82168659560442   18.59084710529297
H         2.46181722472990   11.23036343185221   16.87954190651114
C         3.04943348144654    8.21084193547880   18.42763433903513
H         4.13676839595676    8.23880133914139   18.43223163364262
H         2.73571270982077    7.17805526984588   18.30810256858769
H         2.69092925753157    8.56222189926183   19.39323065245361
C         0.96826717866100    8.99162867870352   17.26523866802940
H         0.64648831939464    7.96653774605985   17.10055694036468
H         0.56823474758891    9.60662256604723   16.46138020056244
H         0.54331712326196    9.33400962050785   18.20684641329231
C         2.84112727348320    7.32564330276106   15.54807893695433
H         2.29134530096268    6.65049640288736   16.18225696642708
C         1.24884387185202    4.68235515978787   14.15295646973732
C         0.29664791889228    5.80555976978309   13.74630828061642
H         0.41131053180998    6.02688426499724   12.68438808043441
H         0.50206692853666    6.71553180057687   14.30810245178821
H        -0.73643267304533    5.51131668968051   13.92749572694425
C         1.07408646699470    4.31637181578917   15.62547003452451
H         1.88364138169793    3.67472525087053   15.96824330106798
H         0.13644652295165    3.77424647458405   15.74740504346537
H         1.02599440536622    5.19209277940481   16.26586708344792
C         0.96325492409396    3.43565561694536   13.31350307323897
H         1.12490507969657    3.63911659005352   12.25811781160252
H        -0.07116346119199    3.12021955869486   13.44541253618151
H         1.60761910601769    2.61215030458973   13.61735207389980
C         4.06143404477170    4.04507016455241   14.49891325055766
C         4.46474688049417    2.85650191694113   13.87764910533803
C         5.18222247752305    1.90217461701975   14.62841337463564
C         5.60679979249408    0.58137233502385   13.99565707754778
C         6.53198605692859    0.85859857303854   12.80438041352261
H         6.86113849834568   -0.08267960903469   12.36823578897672
H         7.40864368834951    1.41631231503678   13.12664303123400
H         6.02414402976673    1.43640605093487   12.03984188409950
C         6.36703242222386   -0.32515630416354   14.97078526862329
H         5.74971585665092   -0.59868343744867   15.82384184744022
H         7.28036520792488    0.14947174554925   15.32343465894531
H         6.64682150729664   -1.24261339158358   14.45639994401618
C         4.35893241103520   -0.18143131506998   13.52794455315320
H         3.68434514450371   -0.34908299466239   14.36587445140940
H         4.64583246833138   -1.14712580811545   13.11695797067526
H         3.83302039559656    0.37503032551255   12.75993354556246
C         5.46001084073854    2.18939496550349   15.95248495038763
H         5.99096570338803    1.45849233882626   16.53664081647813
C         5.09296731603129    3.37891626055065   16.57929338392114
C         5.41998465485835    3.57911176635462   18.05160251511506
C         6.93819717455127    3.51761383817744   18.25882100229010
H         7.17712676664020    3.62716174227144   19.31490090785922
H         7.42014402052532    4.32165959443867   17.70868934772241
H         7.34897213831888    2.57336216689431   17.91279438698898
C         4.74052339890917    2.46724104165114   18.86495288266109
H         4.91983382937937    2.61665908730164   19.92775269056187
H         5.12017077922510    1.48682500662770   18.59132897293947
H         3.66608964467100    2.47672124093376   18.69202777685094
C         4.91996524736776    4.92593963829347   18.57797566072319
H         5.19495107979784    5.03465054092531   19.62524527444840
H         3.83682830596735    4.98962686855587   18.50783141803768
H         5.36252720442794    5.75030064028880   18.02474920661345
C         4.40201914973254    4.30498669288226   15.82469896101268
H         4.10511421700401    5.25303424828872   16.24017110429396
C         4.58769382472988    4.21805536820125    8.74502573782186
C         3.37990893393879    3.74546768255644    9.30999877356817
C         2.58776405506850    2.86815934557368    8.52273169042864
C         1.25059012843218    2.35987793924120    9.04765845204717
C         0.36551071952604    3.55922947473913    9.41367072576175
H         0.11779439677648    4.12447880535976    8.51619972681236
H         0.88181713936262    4.22149020756395   10.10002554510534
H        -0.55925758557239    3.22151661116896    9.87777868051143
C         1.51838338072983    1.47966547568214   10.27483971429743
H         0.58313660820902    1.18578335989318   10.74771764366653
H         2.12799509752973    2.01064584417517   10.99575633558006
H         2.05439177760470    0.58099991438673    9.97503856733475
C         0.47416139818410    1.51882219821720    8.02783110400570
H         0.28103463755680    2.08043701304949    7.11582367194924
H        -0.48517473155315    1.23838423947531    8.45945983409978
H         1.00495828905992    0.60268320403134    7.77881506883344
C         3.07221236404374    2.46373116830203    7.29579119476342
H         2.48495237097624    1.77231727939809    6.71579030054580
C         4.28464006639925    2.89307027373559    6.75430387205213
C         4.74518393176843    2.34209743443911    5.41223875973063
C         4.87199329936983    0.81536244567445    5.51636201375294
H         3.91881350639507    0.35594363613183    5.76205790024271
H         5.58621500352239    0.54925463245986    6.29299485930237
H         5.21782070302021    0.39956986260858    4.57180958664537
C         3.71803820250304    2.70346998417176    4.33055568881416
H         2.74268988003222    2.28213947799641    4.55747574772722
H         4.03797432774829    2.32101139075670    3.36307560421369
H         3.61312899783416    3.78437224357018    4.25753304718606
C         6.10591505055342    2.89912470050386    4.98249915703679
H         6.39269624611194    2.46184756993523    4.02795348440570
H         6.87754886130396    2.65046401536211    5.70800304781884
H         6.06738920248039    3.97926056167157    4.85674208549138
C         5.01768491862236    3.80116281359422    7.48971763955874
H         5.94469831834030    4.18755836017264    7.10532300992967
C         6.37317754648668    6.65838480895780    8.72146006373528
C         5.33542662695645    7.26167526108767    7.77620356233444
H         4.93396393472644    6.50588764907435    7.10302499339604
H         5.78058159817423    8.05794610864195    7.18037480997957
H         4.50831404675137    7.67931300098181    8.35170212965852
C         7.58038354485721    6.12714072453171    7.95106376585195
H         7.29315124649819    5.56194389769621    7.06952411895905
H         8.20093763022107    5.49634478085588    8.58443998090778
H         8.18555748393628    6.96854558194387    7.61366768657338
C         6.86410000011606    7.73004280574724    9.69685379505838
H         7.64722578186820    7.33200443148844   10.33949123179021
H         6.04771251759352    8.08537078146517   10.32049556898479
H         7.27463313592712    8.57971003175886    9.15183773897522
C         6.81118356386472    4.44240643060143   10.54992235228184
C         7.37510677126578    4.81402083908004   11.77754740797472
C         8.48350709023429    4.09488882380501   12.26385473339430
C         9.14438532872291    4.50012584675210   13.57706813023604
C         8.12027683212020    4.43214951265538   14.71724989521335
H         8.60022746741148    4.70326771702952   15.65522686054695
H         7.71936020453076    3.42525948321905   14.81030503440429
H         7.29374486442954    5.11270771053660   14.54526295759666
C        10.31761500109858    3.58972627065438   13.95741287143758
H        11.11434963861781    3.63558724565137   13.21810493891964
H         9.99531642635479    2.55747428357617   14.07601307095348
H        10.72862050213981    3.92094466180678   14.90922266372793
C         9.68659812773832    5.93063024564599   13.44290661321813
H        10.39353710605033    5.98947334177230   12.61692818758608
H        10.19843661534278    6.22277098862087   14.35748484020704
H         8.87839921335159    6.63139397724995   13.26314032603082
C         8.96811388342428    3.03717055776850   11.50861630127972
H         9.82258333868864    2.49942359500637   11.87511278131731
C         8.40057631488114    2.63527156956405   10.30464048802174
C         8.95065828011597    1.49812524117394    9.45645662563919
C         9.53429043908361    2.10042586673383    8.16957770258713
H        10.33139767444177    2.80211815064251    8.40760031867081
H         8.76997011205781    2.63269492860106    7.60921952597777
H         9.94236422821159    1.31608169232536    7.53521285916010
C         7.82402140428429    0.52007436777586    9.09767822574995
H         7.03716986660085    1.00609202793644    8.52794095815141
H         7.38101971647389    0.11027001561530   10.00132794690038
H         8.21814197036061   -0.30007336598087    8.50032189120494
C        10.05338932270029    0.71125334719332   10.16926530972550
H        10.92123643713158    1.33679147900117   10.36481677570405
H        10.37502568879846   -0.11638844195459    9.53991685054785
H         9.68926957061802    0.30160234986565   11.10842630759021
C         7.31371280876419    3.35549299622951    9.84627630229783
H         6.83160089599271    3.08562845783918    8.92104861001560
C         1.90993047681261    7.98633390465459    9.86452188410452
C         1.57149891529337    9.15449600013212    9.12097857424642
H         2.27809428819435    9.94833746310556    9.36374695673056
H         0.56229496860608    9.47374865321674    9.37939282154152
H         1.62150935985381    8.93324586383773    8.05503583992044
O         4.48682291547325    7.25014652927605   12.31295746945300
O         4.17506010433430    2.57180098496744   12.59129889235515
H         3.70788215528073    3.28661198233393   12.11652412281015
O         3.04539479866098    4.11772010069133   10.52250439113218
O         6.91454567442566    5.86072242463734   12.49547967376290
H         6.07622731340630    6.23560189599415   12.15841264392849
P         2.98334182821351    5.23481844989571   13.62709248321653
P         5.44911900356592    5.40225703973652    9.80257597326786
Zn        3.59338131231803    5.78530010309775   11.34996491033568
N         2.18154063688533    7.04828414504466   10.46054297291443

