85
CSD_code = QASGOI | q = 0 | S = 0 | Stoichiometry = C34H46IrN3O | MND = 4
Ir        2.74553755014959    0.81848724135913    2.47544221780423
N         3.85572999833878    0.53742090516154    4.13182739927810
N         1.74935519363060    1.79995916451465    3.68146433684480
N         1.23721276423181    1.46995641634704    1.27262420454241
O         3.95935257952490   -0.26271235631705    1.36890577600656
C         4.02889822712831    1.08638023785485    6.54547601784458
H         3.32686711999722    0.69800581172998    7.28241084134594
H         4.32865633794351    2.08561726835457    6.86043880352604
H         4.90733703434763    0.44656807790146    6.51956891896439
C         3.38094610031112    1.14468751536523    5.19633253936205
C         2.17074545743855    1.88661257989713    4.98428096843710
C         1.44616144886337    2.62571784451238    5.91161912663436
H         1.78321660803356    2.69278712075731    6.93352834446740
C         0.28525258151675    3.27734314785276    5.50872235742563
H        -0.28336025678872    3.85319655768649    6.22248661912216
C        -0.14091620329328    3.18806775540408    4.19275522556279
H        -1.03979435803808    3.68981205204776    3.87178304839615
C         0.60476168436586    2.44222643332320    3.28206181220659
C         0.34736091857005    2.22392682592356    1.89465240456547
C        -0.85297292356540    2.81540301634247    1.22030487921441
H        -0.87335942753588    2.54664155368460    0.16712655837975
H        -0.83673701138143    3.90148368059059    1.30675883508293
H        -1.76612846328937    2.45487653431535    1.69327205721979
C         5.03806787658954   -0.22703150255224    4.20470150717344
C         6.27669548025812    0.39018543609943    3.99255040474432
C         7.42584286354074   -0.38308064124063    4.05739308231813
H         8.38828140386251    0.07683029034015    3.89160317842982
C         7.35870233868251   -1.73601125389151    4.32985563971655
H         8.26398720040423   -2.32272117504718    4.38645453693476
C         6.12925237483846   -2.33943830197073    4.51158248251184
H         6.08288016196523   -3.40076066481930    4.70390380093618
C         4.95599474987591   -1.60290909951276    4.44803396327720
C         1.08602778238774    1.18173825208790   -0.09949112142883
C         1.67323420640433    2.02792144326861   -1.05217766223483
C         1.61896514039675    1.65824018834979   -2.38744158394507
H         2.08284536215683    2.28091091461859   -3.13569510692461
C         0.97732603510106    0.49767834741333   -2.77765353002246
H         0.95194711900577    0.22027763640165   -3.82113858738420
C         0.35842410929104   -0.30247430799812   -1.83557050168193
H        -0.15272370231997   -1.19595153582545   -2.15690695023781
C         0.38881894000776    0.02834161801936   -0.48936228284553
C         6.35945751202589    1.85565392819429    3.63525585445263
H         5.36078173178041    2.29488575321559    3.72200432662852
C         7.29863720315883    2.62313769974323    4.56650277117189
H         7.00087311528891    2.49122911520992    5.60498546306561
H         7.27044291775506    3.68519921614532    4.33150490298060
H         8.32457988613898    2.28032432230220    4.45926989374307
C         6.79313118584637    1.98346640295439    2.17339601855405
H         7.80083993614447    1.59949473779483    2.03327899937696
H         6.77013232081036    3.02454180081136    1.85825920411247
H         6.11342615469593    1.41008805695968    1.54834831082068
C         3.61682155693633   -2.28451972384341    4.60316485546247
H         2.82891888719120   -1.53054171380393    4.50373968153416
C         3.48020624208174   -2.94449440389589    5.97622549819935
H         2.48972345510809   -3.38147350747261    6.08529499142365
H         3.62383645189306   -2.21293076571517    6.76903812865616
H         4.21696229063454   -3.73404162583903    6.10312617736803
C         3.42377413396890   -3.29895756988055    3.47489709648734
H         4.14931878217828   -4.10572108201100    3.54424994946395
H         3.55021639911916   -2.79852049135705    2.51871244518223
H         2.42485036824555   -3.72784365354965    3.51808871542537
C         2.37551020750958    3.29167353170069   -0.60908062073003
H         1.91808205394707    3.62567394199080    0.32817332176934
C         2.24319899170602    4.43129340159298   -1.61975896578708
H         2.84704508397022    4.24715477025888   -2.50470161965177
H         2.58715083336756    5.36072585998550   -1.17051063320410
H         1.20652207605791    4.55917473230368   -1.92503881787118
C         3.84872382410987    2.98577759671894   -0.32800316574267
H         3.92756097324315    2.23255662356867    0.45754493738748
H         4.36622246728480    3.88431433337120    0.00106508022765
H         4.33571494262289    2.60750504786760   -1.22410003731011
C        -0.27603943588934   -0.84132730083471    0.55373466538064
H        -0.53390950079858   -0.21004361457679    1.41062155467419
C        -1.56661213338318   -1.48997766370166    0.05233826765758
H        -2.21429638080848   -0.75141657301440   -0.41591374446319
H        -2.10094001619484   -1.93589305466243    0.88878637356641
H        -1.35949918393455   -2.27810847054549   -0.66711275844296
C         0.71234349386520   -1.90583188618016    1.03660043171165
H         1.03230836421256   -2.53163556661877    0.20639107013731
H         0.25036067405724   -2.53530818800142    1.79405124278798
H         1.59082949714629   -1.42675911381425    1.47231185341261
C         4.01065173853565   -0.64778089565126    0.04634230744147
H         3.15319867643953   -0.30982005189620   -0.55213937597543
H         4.05809193089024   -1.74650130087693   -0.01986258297683
H         4.92635788809263   -0.25503368329075   -0.42366662967951

