83
CSD_code = QASKAY | q = 0 | S = 0 | Stoichiometry = C34H43IrN4O | MND = 4
Ir        1.03482851013030    1.72855814104064   17.84194494295408
N         1.30475729524243    0.62938707100001   19.49695969535508
N         0.00405917089463    2.69893524153434   19.02229063308631
N         0.41910799215723    3.19401036778124   16.62052914394774
N         2.15230663486032    0.70510514670106   16.60136119121875
C         2.92181984041289    0.00292801987603   16.04707191334654
O         3.68832505422017   -0.67248086334991   15.46672963655694
C         0.73652156686972    0.46765942819427   21.90926294240677
H         1.46217452294814   -0.34201439296797   21.92230475463685
H        -0.23825545737571    0.06689001140784   22.18816062222854
H         1.01576252230181    1.21193183659906   22.65411677448648
C         0.67231722719317    1.09500095086879   20.55086958781930
C        -0.09720652442570    2.28829415964038   20.31879047434466
C        -0.87089373819362    3.00940998555130   21.22496103913883
H        -0.95751099648398    2.68178310025915   22.24833138846258
C        -1.53023195848852    4.15205547474945   20.79118035485970
H        -2.13562262405575    4.71758562684989   21.48262322231796
C        -1.41163436162065    4.57198080136220   19.47302582573383
H        -1.91847058044374    5.46034099742634   19.13240171587673
C        -0.62982722519784    3.82762681062801   18.59284409795296
C        -0.35519993875814    4.08229038989109   17.20422292269512
C        -0.90584552704953    5.29117532299723   16.51414753231983
H        -0.50824097194144    5.36968160604845   15.50539127584624
H        -0.64686327311980    6.19028573800326   17.07188932791641
H        -1.99289130942167    5.23362129832244   16.45854034168980
C         2.08485326432673   -0.54465884485131   19.56872065432144
C         1.45935469173284   -1.80018488091622   19.55883491978207
C         2.25552886023090   -2.93434542335008   19.58752374300897
H         1.79796188051840   -3.91045215126275   19.56737679527460
C         3.63305493744564   -2.83511304487571   19.64022678164030
H         4.23660391718965   -3.72980561917456   19.67560752109550
C         4.23848441210029   -1.59364137622350   19.62552695555457
H         5.31438169352441   -1.53095591725118   19.64675776083487
C         3.48188283880676   -0.43291610484679   19.57394509955185
C         0.77385243547261    3.32271673445558   15.25895028425031
C        -0.11414535522392    2.89022987225156   14.26303820372876
C         0.28051329459816    2.98938388890677   12.93815678331257
H        -0.37981300393402    2.65078672811831   12.15596593993177
C         1.51153435803121    3.51991472120369   12.59964611676732
H         1.79628116514603    3.60081822554050   11.56114112811830
C         2.38071850639289    3.93349496484260   13.58972784218287
H         3.34258016425566    4.33842666728427   13.31599808455098
C         2.03510004576504    3.83199420299577   14.92904052199647
C        -0.04207675380983   -1.90067947094956   19.40961411232524
H        -0.50230178167161   -1.00010519478498   19.82681548016913
C        -0.64655513094501   -3.10364178978946   20.13282154797077
H        -0.29870520673145   -3.14969533693866   21.16292550039605
H        -0.38766177487334   -4.03469603047741   19.63590364724805
H        -1.73161639747540   -3.02108654976645   20.13839154050751
C        -0.36821857931593   -1.93990747722302   17.91340047893657
H         0.07622163910417   -2.81860910849800   17.45210155134987
H         0.03808493495744   -1.05492108774613   17.42378837330061
H        -1.44444487268684   -1.96594835729737   17.75653437860655
C         4.13240108813156    0.93039854055602   19.54042883819062
H         3.42842267608664    1.62151576035173   19.05184301037183
C         4.39123039091706    1.42876070955554   20.96511831184051
H         5.05123787452305    0.74104298208760   21.49072602597394
H         3.46155891087367    1.50702168863204   21.52379434743746
H         4.86224575510920    2.40917350534166   20.94160268058299
C         5.42235425595291    0.94461522853638   18.72260867364859
H         6.22683931636753    0.42213648435784   19.23474648156398
H         5.74172441009093    1.97164785466619   18.55975610209022
H         5.25786761284549    0.47811274624503   17.75504108712204
C        -1.42900293144737    2.25029719509600   14.64698737468793
H        -1.74905657879068    2.65531296906123   15.61210597567991
C        -1.19529747822014    0.74692932497096   14.82352121686370
H        -0.41233522490568    0.57941432103777   15.56306306052818
H        -0.87725602842359    0.30104084730685   13.88411350248790
H        -2.10610607966207    0.25420629845838   15.15668250871169
C        -2.54991784990106    2.51358228017457   13.64208152038355
H        -2.38773961268389    1.96674903448871   12.71706041705738
H        -2.62183486763457    3.57481601935943   13.41218920476776
H        -3.50011687955630    2.18576812336953   14.05890794938914
C         2.99685364501856    4.27570625458142   16.00674836632520
H         2.59537231760609    3.96125256165775   16.97858178939205
C         4.36004129755309    3.60385424782608   15.84340088398826
H         4.85188190949152    3.91700458151112   14.92640811443065
H         4.23698614337987    2.52418780670858   15.82286654284454
H         5.00426943468611    3.86505813911733   16.68033836148423
C         3.12963546990895    5.80052309001686   16.00833624676381
H         2.16022898366914    6.27102102437478   16.16010008621396
H         3.53361156773767    6.14966798771970   15.06080135419188
H         3.79726043767319    6.12083788299551   16.80530686110123

