25
CSD_code = QASKEB | q = 0 | S = 0 | Stoichiometry = C6H12N2O4Pt | MND = 4
Pt        0.69764537595793    9.74407305556346    4.39110998515908
N         1.90322446274187   11.40343433141956    4.96109018638379
H         2.75154489057085   11.57912266880014    4.42927303035911
H         2.11763394171771   11.42459093667054    5.95514130038331
H         1.23159254706183   12.15100011876847    4.76555076839538
N         1.96295757404190    8.11948881806001    4.92929506298435
H         1.30908244753842    7.35426660863630    4.74128909207235
H         2.20368848423771    8.09481452437498    5.91719527192504
H         2.80199277183764    7.97423163388558    4.37360661807991
O        -0.57792421363444    8.26262227077211    3.95501193144990
O        -2.29826894712522    7.65790938334235    2.72581069524566
C        -1.47590711639754   10.97504029559337    3.01692771176452
O        -0.63094954862820   11.18518517617474    3.97917667864658
O        -2.37837311274329   11.74112441224533    2.76544891477984
C        -1.42886618272448    8.45580383188120    2.99431164444417
C        -1.21823322160771    9.72715074641427    2.15662066560750
C        -1.93029973105378    9.72948145209334    0.79924633188676
H        -2.57305498400275   10.59603077580855    0.66190992695029
H        -2.50154963055525    8.82004392765309    0.62699140585974
C        -0.57219710575928    9.79496990461216    0.08469433725474
H        -0.40934560953045   10.71252250276272   -0.47711032957857
H        -0.35819813916906    8.94355090189407   -0.55825047268554
C         0.15717730547097    9.75940436550051    1.43892526709844
H         0.75844203405711   10.64813073881619    1.64938437352651
H         0.76118570769697    8.86170661825756    1.59344960200625

