45
CSD_code = QASNOP | q = 0 | S = 0 | Stoichiometry = C18H23ClIrNO | MND = 8
Ir        1.81277907535112    7.30337270885141    6.10322827632369
Cl        2.40413640006971    7.31518868537289    8.38805126170895
O         4.04006849391835    9.17403078172598    6.02373330988443
N         2.64852783731690    9.09615284744288    6.10246778767138
C         2.88880813820487    5.27420497151504    5.65414251719099
C         3.14329152303743    6.10998117522284    4.56742438449666
C         1.86991183053354    6.54569666004699    4.03280662090199
C         0.83214396339242    5.83375516426336    4.72460707092614
C         1.44648507006075    5.13784912921468    5.79876726072795
C         3.86881541213375    4.54703062434600    6.51499807966886
C         4.46621238834361    6.48446840983066    3.97986087582017
C         1.70106655195093    7.27639339832149    2.73834751979567
C        -0.59241148349715    5.74458382716956    4.27494197153765
C         0.80300016877196    4.14344103845194    6.71562478487653
C         1.97138688148056   10.18890112906100    6.26314172070108
C         2.58080256396198   11.54472982705789    6.33599179445806
C         0.56007158926148    9.92275467836562    6.41520807679563
C        -0.42497632338728   10.89524494808273    6.58629379639667
C        -1.73116458832189   10.50664393445460    6.79774632154707
C        -2.05034751216072    9.15689399929780    6.85931754238968
C        -1.07315437031409    8.18842914860574    6.69319648837271
C         0.24642656750724    8.54296955169509    6.44633030554247
H         4.36744624303509    8.53069228014722    6.67488012642113
H         3.74578120356604    4.83748287322110    7.55874885736650
H         3.70381769472522    3.47132373964958    6.44317556983345
H         4.89303131527876    4.76131079897600    6.21892505319612
H         5.28638274335165    6.10963457013829    4.58737805584973
H         4.56023137197284    6.06346051947473    2.97762378183824
H         4.56964548905301    7.56626966198948    3.89931185955703
H         0.73618399690581    7.77663140966070    2.69771981240758
H         2.48358197573675    8.02037314036339    2.60585370582953
H         1.75667618223982    6.57335541250679    1.90440199637575
H        -0.99316486843246    6.72522211792897    4.02595847788132
H        -0.64954160836713    5.11689847193906    3.38382983431265
H        -1.21986090824984    5.30061920303549    5.04284092061710
H         1.25373908524633    4.18870363075421    7.70492777922851
H        -0.26272560946752    4.33381208994005    6.81778142645734
H         0.93693745557808    3.13225126804325    6.32532653349531
H         2.30259267957035   12.02145429916733    7.27395776856324
H         3.66311989450934   11.47476341006774    6.27071655864739
H         2.21145531688479   12.15997071307743    5.51711617136337
H        -0.16417652572840   11.94281278991597    6.56077724925607
H        -2.50323306515957   11.25004599491469    6.92984710676147
H        -3.07234208663599    8.85754801119209    7.04306183278523
H        -1.35025815323795    7.14764695549306    6.76711175421897

