52
CSD_code = QASNUV | q = 0 | S = 0 | Stoichiometry = C19H23F3IrNO4S | MND = 8
Ir        5.32267090284371    3.11128217897968    2.60758481525708
S         7.96008721931041    2.18239073961780    2.86567107353932
F        10.17251572719672    0.97253559270198    1.96126589082419
F        10.42571379059165    3.08582809904656    2.31997299322344
F         9.29446658817581    2.40750154584673    0.61059847277314
O         5.71884609934857    1.75387124613450    0.06419026346989
O         7.49642303767378    3.54281505349935    2.60461795095877
O         7.17187720636549    1.17536011706159    2.18009458048948
O         8.31236876780600    1.89313359538073    4.21944955520500
N         5.45645728791525    2.97798657573600    0.63134463258991
C         4.07678599146133    0.99519369543590    3.15730558039089
C         3.42018234498043    2.31291771529112    3.06486686196200
C         3.81573937671262    3.06255817126935    4.25869961291436
C         4.90150631140622    2.36630742798746    4.81429000127414
C         4.98294289859756    1.04584092684768    4.18715810455361
C         3.79337951300511   -0.14095642182866    2.23495299899531
C         2.11714458444925    2.51858221173563    2.34306263995757
C         3.05052032275966    4.20254518958295    4.85849303038409
C         5.67553561106725    2.72047416470904    6.03969268379684
C         5.86064479634017   -0.03867378813460    4.70114049412050
C         5.26921533665432    3.99900609281706   -0.13545495611528
C         5.36098281350872    3.94755069787465   -1.62072255410115
C         4.98985535841964    5.20386177937582    0.61896675876889
C         4.81218678352043    6.46707633399261    0.05899197959622
C         4.64229954210188    7.56075556476515    0.88544242429914
C         4.67930686833567    7.39762529475255    2.26092945390104
C         4.85068911936128    6.13818475532049    2.82053880415131
C         4.97453721986941    5.01766510660965    2.01791621015979
C         9.56503677056872    2.16000009908946    1.89899786141975
H         6.26654717485650    1.27823052232625    0.73667239084099
H         2.89442091471170   -0.67198729755747    2.55140911026440
H         3.63347755320819    0.21921886546809    1.22132873900411
H         4.62345761166834   -0.84184027474429    2.22207924109587
H         1.90046047362794    3.57755440102081    2.23160804755282
H         2.14472133273542    2.06385483184445    1.35668127982609
H         1.30899595597521    2.05531760011319    2.91013833211904
H         3.66245667098436    4.76090862418314    5.56078600664890
H         2.68071827314453    4.88072580592115    4.09487534838595
H         2.19462526388832    3.79931057323433    5.40221359336100
H         5.32449060081697    2.12829133558072    6.88670277189942
H         6.73146089962362    2.49969941247365    5.88849059635421
H         5.56919156608591    3.77439673379615    6.28481205710986
H         6.88876660295288    0.31227781028793    4.77380902508167
H         5.53419270570565   -0.33973426235182    5.69810803258654
H         5.83650019349393   -0.90617817068980    4.04770706573611
H         4.40622822726517    4.22767113229049   -2.06159688299513
H         6.11675252756440    4.64942680796358   -1.96673814785004
H         5.62582578291634    2.94477015948225   -1.94216407988075
H         4.82061982068860    6.59232686486452   -1.01309515298392
H         4.50250970326108    8.54346456804454    0.46078748905227
H         4.57859987667149    8.25819489657971    2.90599587493654
H         4.89786207781519    6.04587929837346    3.89353104312860

