81
CSD_code = QASQAE | q = 1 | S = 0 | Stoichiometry = C38H38IrN3P(1+) | MND = 7
Ir        1.90871275979694    0.09142439878048    9.42886999655344
P         3.21651353973151    0.55404975757729   11.44543023810429
N         0.26863536223213    0.35610116350084   10.54803115887734
N         1.49413694262023    2.45301000361152    9.31282368408502
N         3.62161339548480    3.48203093298072    6.88008829560391
C        -0.28110389894275   -0.57580419841801   11.33749636284331
H         0.25297609388317   -1.50927215752260   11.43336575523235
C        -1.45951511690182   -0.39576678098774   12.02991819998948
H        -1.84462098104035   -1.19226382987724   12.64483936464810
C        -2.13356698035653    0.81582076732824   11.92047297519549
H        -3.06830476772697    0.98047428894868   12.43102865958275
C        -1.55160727553659    1.80825860363284   11.16150506494894
H        -2.00833584494004    2.78161971652203   11.07527389062220
C        -0.34403660112627    1.56467935502424   10.50375935568317
C         0.35825149464450    2.64518584920972    9.85811431554078
H        -0.08402939177547    3.64092057469873    9.94928869801117
C         2.23553336103045    3.58766867748066    8.84762729317280
H         3.23959637617980    3.53162687218948    9.27760575939659
H         1.76001182037701    4.53034788298721    9.15953844771669
C         2.38638754783155    3.60110519796706    7.34298097706627
C         1.28387794135321    3.76178066295323    6.51253449703032
H         0.29105602022796    3.84811170736463    6.92743415160153
C         1.49283784836959    3.81591181672248    5.14344981428655
H         0.66059042444269    3.94642483372765    4.46807134430913
C         2.78728128870281    3.70547068712560    4.65935680581021
H         2.99243495275053    3.74964155112839    3.60217227994598
C         3.81628450197379    3.53554543016772    5.57348664958137
H         4.84428503924395    3.43744767422086    5.25263556249586
C         1.21087900972611   -1.84843179163739    8.76384567427302
H         0.44106289128978   -2.25711069190574    9.41487858269067
C         0.79348023685617   -0.86321145738178    7.84400424871440
H        -0.25336769736868   -0.56722263986579    7.88913114678649
C         1.40385591382876   -0.75843342026146    6.46195316572858
H         1.69662404254415   -1.75569651806630    6.13051138622376
H         0.65011105476450   -0.39479566485250    5.76300605234315
C         2.60828334152349    0.19446240128458    6.43281963072035
H         2.26646514907661    1.18417353440466    6.13361617782120
H         3.33812533171074   -0.13215413386760    5.68539658218263
C         3.30743016622056    0.32336809327173    7.76536089522460
H         3.81377134696639    1.27981315616865    7.87533318443886
C         3.75558396627555   -0.75584773274984    8.51668115879836
H         4.59344892520848   -0.58959019660244    9.19327711123669
C         3.62775924491204   -2.19039381849484    8.04490201641569
H         3.72099990713641   -2.20250029578457    6.95817361480821
H         4.45866890097219   -2.76833551878770    8.44962693842283
C         2.30576753759402   -2.84890011026160    8.47346323049681
H         2.47730715295056   -3.44486957055157    9.37010340727918
H         1.95667974958832   -3.53798816199511    7.69803772183753
C         4.17787239890576   -0.87344728586515   12.05339052637874
C         3.62384117828792   -2.13684698537761   11.86419131830804
H         2.67440095392441   -2.21701380636473   11.35300350969894
C         4.28084693160027   -3.26571118916864   12.31390626649722
H         3.84329261357052   -4.24228166198153   12.16845693544195
C         5.50687230293171   -3.14162781393165   12.94886904224098
H         6.02586417317613   -4.02110592315345   13.29739332671256
C         6.06783940123166   -1.88856169996737   13.12949648463982
H         7.02491933504653   -1.79135701951677   13.61898809411071
C         5.40939904944023   -0.75427260153802   12.68537461797648
H         5.85818567985037    0.21742018310512   12.82918833407359
C         4.42497217516435    1.91767565009213   11.58261179409994
C         5.14607662188473    2.29798382069179   10.45493963951339
H         4.97684481210554    1.79284290356600    9.51599909153816
C         6.08550120392900    3.31155757541059   10.53094185786695
H         6.63314092871677    3.60088379628673    9.64710841569756
C         6.31753225980874    3.95109928390046   11.73704083967432
H         7.04776372970593    4.74307462642784   11.79862346425715
C         5.61447529833056    3.56706354038423   12.86815181758300
H         5.80190491315795    4.05438366060924   13.81307930167259
C         4.67320280327894    2.55629711117467   12.79620850398304
H         4.13513725090790    2.25994192648266   13.68547889861525
C         2.11953544384239    0.91085960433691   12.86215912704379
C         1.54251630749422    2.17806455125313   12.94116282995492
H         1.83978461547236    2.94165736802373   12.23414510656719
C         0.61999513946244    2.46648081429847   13.92780181657313
H         0.18716832916953    3.45390677916575   13.98818909811486
C         0.25451574187957    1.49105700218632   14.84260678291596
H        -0.46412916976637    1.71753144180538   15.61490410021421
C         0.82194876985913    0.23056270895961   14.76916350745128
H         0.54756787690611   -0.52794689957222   15.48654507099980
C         1.74514577760134   -0.06341180703698   13.78026525367452
H         2.18773312887554   -1.04794655582853   13.73279370146745

