81
CSD_code = QASROR | q = 0 | S = 0 | Stoichiometry = C28H42N8S2Zn | MND = 4
Zn        6.63186892703196    2.96369050206423    0.75410569283100
S         4.67815275336294    4.20679690100159    0.44932281497785
S         7.77509694741335    2.10590928971574    2.55409616794364
N         6.45384533616588    1.84244596728030   -1.04602108926733
N         6.17485298334012    2.55655708723479   -2.14688123662202
N         7.78414894363874    4.28443067008464   -0.47927068287674
N         7.20738884582352    4.62094742396376   -1.64467339532899
N         6.66114293681079    3.55993236964090    6.20349557455193
N         6.45409440860974    3.83814524588739    4.91207877910502
N         4.22257235975340    1.59221282348765    5.55737731465155
N         4.42077670878665    2.67184470539283    4.79516523538854
C         6.91094921814802   -0.48694280356894   -0.43290549340311
H         7.42076095334512   -0.05648239388413    0.42645553221890
H         7.54152306678352   -1.24445431985907   -0.89148592770005
H         5.99381997447384   -0.96518338100394   -0.08941150965556
C         6.59355644209182    0.57952775121336   -1.41181902104413
C         6.39492587894202    0.47607539035824   -2.79624651355950
H         6.44082506973307   -0.41303830170640   -3.39053342469283
C         6.13544839276672    1.75468504770637   -3.23906825519020
C         5.86521851035086    2.23380190540258   -4.61848419445541
H         6.63136574744088    2.93618661784622   -4.94823442488758
H         4.89330771711558    2.72119753566311   -4.68596073893286
H         5.86959716575756    1.38389990560632   -5.29482605438852
C         5.99546522515027    3.98773651347229   -2.10690853408857
H         5.86554430117231    4.30517192879480   -3.14899908578093
C         4.70309677384969    4.44633662974123   -1.36775018553518
C         3.52050940298061    3.67599063827870   -1.95445633850438
H         2.60903322143839    4.01103253254219   -1.46706546077813
H         3.62322315537624    2.60855758322471   -1.77045669353726
H         3.42779709528433    3.84921880410584   -3.02703530012322
C         4.52864469088355    5.94494537023602   -1.61619109940821
H         5.37832061176144    6.49894373256001   -1.22253758908768
H         3.63941033793822    6.28530844740131   -1.09282031301788
H         4.41247042432763    6.15980798661604   -2.67893297912676
C         7.95553493777932    5.54160782832502   -2.30170959510662
C         7.61111923692730    6.10777177853697   -3.63091067430380
H         7.57615240507435    5.32957837119801   -4.39416036017753
H         8.37316632532842    6.82783281009442   -3.91510210536351
H         6.64831666427690    6.61596276659286   -3.60895488382028
C         9.04587015704512    5.80183079024844   -1.50187398408453
H         9.84489460242684    6.48417773438927   -1.70639299644615
C         8.89993169260050    4.98631360681595   -0.36942868489780
C         9.80631112412331    4.86032478190703    0.79681145758547
H         9.54080665404609    3.98655643719158    1.38769292366787
H         9.73509513148092    5.74618341393614    1.42658689483668
H        10.83650953240401    4.76845589716980    0.45958678671383
C         6.41084943514717    1.64457707501960    3.70759601878384
C         5.45511343005308    0.70076821001336    2.98810683129742
H         4.95521963212109    1.20942390177055    2.15934834693909
H         4.70488534276889    0.33554414602713    3.68590876323672
H         6.01177814081084   -0.14743327127496    2.59631563470016
C         7.05520922627685    0.94977106744653    4.89944729516992
H         7.80876164994134    1.58854564082794    5.35057108711838
H         7.53290744104420    0.03079116635328    4.56771154431233
H         6.28998538201721    0.73067566654207    5.63826569126500
C         5.66124695984478    2.93810433507128    4.10518659688555
H         5.40669586747502    3.47522312078203    3.18011544541583
C         3.35412185755266    3.51213374449950    4.83681166182889
C         3.28827080763558    4.79638675154793    4.09541653998982
H         3.46849967958671    4.64679563546150    3.02942615217657
H         4.02951078090230    5.49933112839468    4.47668951484281
H         2.30138993098960    5.23397754560711    4.22074053913254
C         2.42752496483573    2.91936924213824    5.66347811031739
H         1.45887449270733    3.29453047917475    5.92574309357969
C         3.02306225587000    1.71867587532052    6.08959136725972
C         2.45768968849159    0.68205538802901    6.99453409893359
H         3.18546966479082   -0.11197407596471    7.13519224794249
H         1.54554485928101    0.26207102538920    6.57114956110036
H         2.21325273141634    1.11804901087222    7.96213039102382
C         6.98411183506178    5.04067093740287    4.56944061870198
C         6.91548620464574    5.64070823083754    3.21303514090228
H         7.42761172972140    5.00684893442421    2.48729387743762
H         7.40074994217676    6.61355809029570    3.22894292309829
H         5.88624765847841    5.77187549058326    2.87847061328384
C         7.57447810774360    5.53711301981656    5.71000694314685
H         8.09846391417579    6.46613610216062    5.81441975428554
C         7.34107374909263    4.57071026517048    6.70524482082124
C         7.76099525857488    4.59801590884420    8.13180352263328
H         7.37783429982363    3.71519456023006    8.63521931567243
H         7.37652356500835    5.49008171667244    8.62508862892095
H         8.84799652262753    4.60946161164497    8.20739095854096

