61
CSD_code = QASRUA | q = 0 | S = 0 | Stoichiometry = C20H34Cl2IrN3O | MND = 8
C        14.25166294241525   10.00199678253105    5.84484678299856
C        15.21253569233662    9.81810866789177    6.85751233693803
C        17.37117817802092    8.46681793566274    6.89736510001190
H        17.70820872198105    7.68614895612886    6.21721733845380
H        17.17302805514993    8.03745208612170    7.87679118523101
H        18.14829198331041    9.22604640080810    6.98047265111921
C        15.26528212514535   10.41172960896076    8.25236043399291
C        14.86636833276910    9.34324059286570    9.28124182823948
H        14.90327539286702    9.78113172831197   10.27530152038922
H        15.52620409846378    8.48052377031218    9.25137467440559
H        13.84759307881305    9.02046172037024    9.07990122226916
C        16.66015824879221   10.98236667288514    8.56766035322231
H        17.07875982841209   11.48653890132880    7.69995411281318
H        17.34539986089631   10.22125087681108    8.92346312214604
H        16.53133679866925   11.72151536014450    9.35405225877798
C        14.29562582562821    9.15273565195671    3.45391267176473
H        15.09284352170890    9.46802694885888    2.77477154483012
H        13.41865898660199    9.78555693365184    3.34211751395470
C        13.91671039843870    7.69802738961628    3.17582096305322
H        13.07610623935019    7.44167836620691    3.82070518916007
H        14.76488436839345    7.05680604522394    3.42366558270031
C        13.51595965069452    7.48269526310794    1.71844479972887
H        14.36390481936230    7.70223630546292    1.06442278825306
H        13.26670783522258    6.42776406287419    1.59205626488469
C        12.31534005190803    8.33068394888322    1.31234075331059
H        11.55311406735854    8.28812897257266    2.08556688002351
H        11.89201065193479    7.96779182250437    0.37888898178622
H        12.60166599358864    9.36950270854289    1.16956446666105
C        13.34679413274797   13.14492143385039    5.54703970023481
C        12.28019436407207   13.22750575415155    6.47693370909709
C        11.06174649071672   12.84714417786007    5.80345636432319
C        11.37261334181525   12.57071151529906    4.45913022527428
C        12.80429065234964   12.66194191286730    4.30379112750174
C        14.74491420888844   13.61318047864194    5.78980381542873
H        15.07855580450792   13.29717652957291    6.77562572973352
H        14.78324523826744   14.70280165284539    5.74557758063559
H        15.42776428480007   13.21576741358896    5.04231704133296
C        12.34981997130494   13.79570385991009    7.85316837422015
H        13.33860411403651   13.65220854887153    8.27896527452522
H        11.61977048536805   13.32096967757636    8.50467201564392
H        12.13257928526648   14.86543037044403    7.81820260631214
C         9.70258912660051   12.93019800424440    6.42026220806897
H         9.40286651963435   13.97380635843402    6.53642039776097
H         9.70212180723686   12.46751936652897    7.40614676159123
H         8.96303145020283   12.41862268383947    5.80899207527723
C        10.42102659060088   12.25501139901139    3.35273419481785
H         9.40197669572483   12.50450656803584    3.63800521113910
H        10.45235688504751   11.19217519255179    3.10634613609416
H        10.68372910603919   12.82196064876070    2.46001717717711
C        13.51286349961793   12.66393665514611    2.98411645626703
H        13.48682797562424   13.66733029654893    2.55305834159881
H        13.03377117184123   11.98251193709661    2.28491447441814
H        14.55539322866375   12.37238934954241    3.09440949341325
N        16.17232131177079    9.02169987823187    6.33380039295783
N        15.91094560140531    8.71862375248705    5.09173148532941
N        14.78044499339964    9.30545594407096    4.80216866178313
O        14.39191532461356   11.50737223469754    8.33065890856638
H        13.47819559630811   11.16128337441996    8.40983182449543
Cl       11.41584845318727    9.26190036811499    4.78081585651039
Cl       11.80566094881075   10.08931579947076    7.86387140299783
Ir       12.50590559129548   11.07825238268956    5.80442165435382

