36
CSD_code = QASTIQ | q = 0 | S = 0 | Stoichiometry = C14H12N4O5Pd | MND = 4
N         5.57773128515645   11.90181599823573    9.59065135558518
C         6.38019831497503   12.47951110784519   10.46887255460890
C         6.84185801869633   11.61859726132392   11.59846360549544
H         6.09923111419161   11.66319731172181   12.40337596477614
H         7.80292080199516   11.94255764608949   11.98928598551656
H         6.90885059641424   10.56686722383205   11.26697286747810
C         6.73816826061143   13.83213780526276   10.33919831722732
H         7.39427291744479   14.27908374644733   11.06954548563314
C         6.23749821450878   14.57116992718029    9.29650710786445
H         6.49220894165118   15.61499025148136    9.18550460425153
C         5.36997093352575   13.96809097928637    8.36720745896983
C         5.07153539074555   12.60448670233040    8.56335658999268
C         4.76943231999726   14.65939999526340    7.27744999830051
H         5.01407196217236   15.70199469012264    7.13849650084250
N         3.91014715325820   10.63444375052211    7.89011442429479
C         3.00622227420959   10.00973681249926    7.16226698211866
C         2.72928090913279    8.59521806024494    7.53730830290549
H         3.66857928908467    8.08536490083213    7.76912369744593
H         2.20508453324509    8.05795686428971    6.75275594445241
H         2.11273738366659    8.59533884223140    8.44094446431195
C         2.33684106318788   10.66344895756618    6.11207546469007
H         1.60301137281225   10.12432389374264    5.53367464940248
C         2.62165880689966   11.97648971772372    5.83741940511456
H         2.12661920820662   12.49572125093984    5.02961704254809
C         3.55746448931478   12.66379001125595    6.63197420921979
C         4.16701787862718   11.93496669235777    7.67327652947199
C         3.89466480726399   14.03486331519622    6.45020946400804
H         3.42474773796044   14.57147992978756    5.63923447688855
N         2.76160657781211   11.39377438824018   11.66893078137730
O         3.82024760312301   10.93919741012758   12.16508470731667
O         2.54171084335197   11.15298871691153   10.46604272734571
O         2.00384554433883   12.05132883240036   12.33048569245537
N         4.14779441329571    8.45228314334058   10.58602571514037
O         3.03994218474002    8.04244948680085   10.71986157281954
O         5.23130337660402    7.92313675444223   10.76206704277573
Pd        4.67882347764409   10.04989762223757   10.08621830735382

