44
CSD_code = QASTEM | q = 1 | S = 0 | Stoichiometry = C20H15Cl2N4O2Pd(1+) | MND = 4
C         8.22129976065770    2.41832436456103    2.48432643619227
C         6.21448920338025    4.76018026428498   -1.80847937791961
C         9.59965831286634    2.37491625013168    2.76608837272999
H         9.92136496648151    1.95711637338702    3.70679720223533
C         7.01058236427775    5.39330345651364   -2.78218276488744
H         6.51996785524159    5.92833581365172   -3.57966742389229
C        10.51579796252925    2.85249170636670    1.86495361725145
H        11.57404860780694    2.81420828982901    2.07214881518301
C         8.37866612410867    5.33299178098415   -2.72196894883594
H         8.99176444382225    5.80709102748282   -3.47270750576903
C        10.05759204328538    3.42380249088569    0.66326532738664
C         8.98471488453764    4.66763909623830   -1.64007519919485
C         8.66584466016634    3.42127743137172    0.44690206743142
C         8.12546288452958    4.04538130845691   -0.71382978611356
C        10.90515832199693    4.00961729857952   -0.31863408142214
H        11.97086457766924    3.98070737035941   -0.15334642086698
C        10.39015062768466    4.60691628153639   -1.42349568233945
H        11.03757435334732    5.06408376901501   -2.15543636950859
C         7.22802539834908    1.92447818299208    3.47567029440336
H         6.28875478635602    2.47528034584856    3.37648350048424
H         7.60910531752745    2.02215887708563    4.48844384064903
H         7.02109680333291    0.86997515652992    3.28661007037727
C         4.73317480458336    4.88059331110998   -1.84895039881614
H         4.30256505360961    4.02632706912821   -2.37384228617379
H         4.43414838660954    5.78703628896782   -2.36763673213624
H         4.32668761750399    4.88310926250645   -0.83366039072088
C         3.16547792463507    0.01088251171315    1.74515798481077
C         3.65795314953599   -0.54175370263717    2.91971265217991
H         4.60848058750378   -0.22408831919182    3.31466832452011
C         2.90106738537493   -1.50487048650165    3.57220381062215
C         1.67451562245095   -1.90944954508250    3.06584329220527
H         1.09171065603959   -2.65731351947700    3.57853313871270
C         1.20293060910984   -1.33865995381614    1.88864509780749
C         1.93924461256669   -0.37533016319505    1.21492293804807
H         1.57293778204984    0.06547561054855    0.30347914550791
N         7.77794780049935    2.90553937888722    1.33197214197296
N         6.77423249418371    4.06442850854148   -0.82468902957009
N         3.93472529008410    0.99124005356704    1.08325717761828
N         3.49888452292431    1.53096755052489    0.03509939364051
Cl        3.49596365042876   -2.20001046668743    5.02519807124157
Cl       -0.31454623377519   -1.83290587127193    1.25878272057750
Pd        5.96117750201255    2.74814942208002    0.45997100867121
O         5.10832782992438    1.30757209307149    1.61197143890565
O         4.24120869218664    2.42208403112110   -0.51220548320047

