95
CSD_code = QASVIS | q = 0 | S = 0 | Stoichiometry = C36H40F6N8O4Zn | MND = 6
Zn        5.27661221891385    0.00011099342530    0.00002516163738
O         7.16865760244382    0.88051679989904    0.10379676454670
O         8.01478527785024    0.63897539156687   -1.93056413031955
N         5.14438518223242    0.19905091488963    2.03219032524158
N        10.34909371768724    1.72164681917252   -2.43578938922490
N        11.43956140701103    2.80770268613916   -0.68873215064499
N         4.36807816720805    1.84314974518519   -0.39509838564339
C        12.44209619792116    2.60718572871386   -3.33330479393024
H        12.69707224704004    3.04324545444504   -2.38198841732508
C        12.95713561338431    2.17467308170620   -5.66163322796066
H        13.62519792321983    2.28874738235163   -6.50045717544937
C         9.29530377589563    1.79786357882213   -0.28890251131729
C        10.38719751369661    2.12366182234789   -1.13667295857498
C        10.47134765235971    2.91938154674513    1.48573616164412
H        10.54542934690376    3.24883647754916    2.50964060629912
C         8.07942068557687    1.04966299279479   -0.74881853417492
C        13.27550149173098    2.73623614698009   -4.43121518540294
C        11.24418921229517    1.90120401943574   -3.46243596983760
C        11.76807804802999    1.47551425272812   -5.78474672986399
H        11.50317725731175    1.03389913735589   -6.73329374953238
C         9.36981245522773    2.21232388127903    1.03260332144008
H         8.55164259942503    1.97012437282920    1.69571293526848
C         4.38741918360117    2.54568351284610    1.97292551825693
H         4.42005464048934    3.45618704987828    2.57380933318482
H         3.37091251635302    2.14838426012068    2.01988475059420
C        11.47636849558402    3.18984879448554    0.57246597756859
H        12.36350212844279    3.74118139075107    0.85653448384121
C        10.92202924349432    1.33977154727513   -4.70394728552641
H         9.99533315759915    0.79335631749694   -4.80549252939054
C         5.34526254707051    1.52946127888151    2.59447324777027
H         6.37528305790838    1.83349413813882    2.39433710795949
H         5.19231953293573    1.51292611918907    3.68420823596168
C         6.02228589840519   -0.81864412612641    2.59705802523422
H         5.80037420069721   -1.00901536837564    3.65613534572003
H         7.05503504855517   -0.46635967772684    2.51176611947440
C         4.72544415798882    2.91710843027486    0.52829813594270
H         4.20381859025995    3.84826736403254    0.25921330738761
H         5.80087834064697    3.08603511566137    0.43966101200412
C         4.69180481013650    2.10976132748728   -1.79399415234685
H         5.73556187390016    2.42981033866404   -1.84365187614077
H         4.06239487220290    2.90389976080007   -2.21866101326683
F        15.63188011701073    2.63139376062376   -4.23735587644234
F        14.65424008483415    4.24392412648149   -3.20677107157301
F        14.82058135620309    4.28098654856050   -5.34832889759717
C        14.57662405275945    3.47225049398052   -4.29915542445063
H         9.49182988261164    1.19569661750353   -2.64715519034290
H         4.16322021425462   -0.08107557909707    2.21797850840609
H         3.36418709715537    1.68460677819091   -0.32698551063172
N         5.40888501127073   -0.19886414836049   -2.03212755175068
N         6.18518523213884   -1.84294176212907    0.39513265273669
C         6.16588176997240   -2.54549664618546   -1.97287362134900
H         6.13325654332380   -3.45599903709030   -2.57376153166636
H         7.18237055462110   -2.14815028485265   -2.01987973668592
C         5.20805539062886   -1.52927806125063   -2.59442574992702
H         4.17804968067842   -1.83334971376358   -2.39429242586253
H         5.36100003579946   -1.51276164795554   -3.68416284315176
C         4.53100794867834    0.81882403858684   -2.59704911741961
H         4.75292969965164    1.00918397363400   -3.65613196147533
H         3.49825048885689    0.46656528789300   -2.51175175583948
C         5.82781906270576   -2.91691345028229   -0.52824406749551
H         6.34950015768976   -3.84803413800133   -0.25914273638575
H         4.75239122349170   -3.08589118485850   -0.43956446866623
C         5.86148873168719   -2.10959714256264    1.79402632267653
H         4.81773564587196   -2.42966085395711    1.84369524784766
H         6.49092676926458   -2.90373215394895    2.21866306816400
H         6.39005230308750    0.08124415615780   -2.21788901847570
H         7.18907643361103   -1.68438388310798    0.32700198410313
O         3.38468538116291   -0.88047180445598   -0.10368674049519
O         2.53837942048923   -0.63868154658041    1.93056784521378
N         0.20418602417216   -1.72170127562074    2.43581098545806
N        -0.88614343090303   -2.80784310628687    0.68872274394823
C        -1.88876513484290   -2.60740846128628    3.33323744890834
H        -2.14373683792995   -3.04335977374758    2.38185727047668
C        -2.40407296734202   -2.17472877134263    5.66145698470380
H        -3.07209822472202   -2.28896134743334    6.50028395242754
C         1.25809764119671   -1.79795201428721    0.28898841026178
C         0.16611140494833   -2.12364523081531    1.13667114156111
C         0.08224717140265   -2.91963391685885   -1.48565811770323
H         0.00818077874649   -3.24898806012691   -2.50960228446481
C         2.47430241743528   -1.05043937937483    0.74917142281637
C        -2.72225791279834   -2.73643919173520    4.43108373185547
C        -0.69092138470225   -1.90135811930414    3.46242706352775
C        -1.21523404379927   -1.47524697832019    5.78454461066291
H        -0.95007574990497   -1.03416652673353    6.73333476828335
C         1.18371305882984   -2.21251023518949   -1.03248633190543
H         2.00178756304373   -1.97008346124546   -1.69562427175876
C        -0.92283182241317   -3.19009166019755   -0.57244614666233
H        -1.80996390214932   -3.74141055170843   -0.85656765802916
C        -0.36901564140832   -1.33966032848952    4.70386072489296
H         0.55785841806114   -0.79350206364401    4.80556187026380
F        -5.07869539137987   -2.63166066945424    4.23729931354568
F        -4.10097454581162   -4.24399024388769    3.20647461469154
F        -4.26725539265922   -4.28136158386785    5.34803432525333
C        -4.02337641189233   -3.47246130522825    4.29896177411992
H         1.06138613764307   -1.19565928710188    2.64719561030257

