78
CSD_code = QASWUC | q = 1 | S = 0 | Stoichiometry = C30H46IRu(1+) | MND = 11
Ru       15.71458532253567    7.26628748820857    3.21252647989322
I        15.90453928187659    5.12900156101609    4.87200303331103
C        17.81547816408403    7.59042452132876    2.27207110937675
C        16.75115129074059    8.11253489400859    1.46797449687487
C        15.93464816591136    7.03911789872521    0.99090335699202
C        16.40884322950944    5.85980485012317    1.57713540324539
C        17.57628641213784    6.20250687024686    2.36772531616009
C        18.91761914774944    8.41262373450883    2.85927760719636
C        19.04078115283910    8.25059500473216    4.38737957057980
C        19.70379517325382    6.95612567298490    4.85540694782015
C        21.04091450464177    6.78537379934342    4.14150541200788
C        20.89073487330231    6.83276546616075    2.62327013455854
C        20.28338415991503    8.15698312592580    2.16116607207483
C        19.89073367653021    6.98451047874675    6.37005597294797
C        20.16251061564501    8.26954293523452    0.62554138717339
C        19.81207677769854    9.69723486305518    0.20082202401561
C        21.46041802648930    7.87157034874117   -0.07838914583297
C        13.91685262443154    7.61949370025224    4.61134844223697
C        13.51718855510265    8.02044807839239    3.31821175222992
C        14.44489143581576    9.03823200762954    2.92412545463198
C        15.33259154374889    9.32883835862630    4.00766329860202
C        15.04415466593575    8.42692829251657    5.03861508289707
C        12.38411087207751    7.53181700114515    2.47392404838409
C        12.41024867733441    6.00578034288767    2.25690508836964
C        11.93871825969273    5.16912992544343    3.44516704473503
C        10.57338278857983    5.66903885637676    3.90636404469781
C        10.58719829770287    7.16100914858354    4.22838167689163
C        11.00085313364977    7.99259139369766    3.01458696241201
C        11.87920057233889    3.69495387387904    3.05369393142112
C        10.97597493409324    9.51368374311416    3.28091164489456
C         9.67396001804247    9.95217308688132    3.95263182547117
C        11.12850001529669   10.30634199918206    1.98092682500035
H        16.70747212453773    9.12924688275048    1.09943781508785
H        15.14410821510713    7.12113862449189    0.25805656673915
H        16.09220034747973    4.84732690561346    1.35844924102888
H        18.22862257235087    5.46393342087976    2.81233797865861
H        18.65548842286615    9.46167142558635    2.67755105530456
H        19.63649104851161    9.08804329534665    4.75667842567570
H        18.04326837507956    8.33374424838327    4.83628862929115
H        19.06165053194793    6.10238890998845    4.62396142412206
H        21.49188121458957    5.83603232412106    4.43258479657584
H        21.71688521888675    7.58293921688808    4.45739981990678
H        21.88220603673397    6.72772015327263    2.18583459589971
H        20.28815773055733    5.99381634837230    2.26994898495991
H        20.94859691747247    8.95777090305383    2.50266563744362
H        18.93149017389747    7.07332837752532    6.87446982171030
H        20.51828035669324    7.82169747754179    6.66630538638454
H        20.36408560719217    6.06624871958666    6.70560929582751
H        19.36891024488885    7.59148345192110    0.28503252052245
H        18.86883725629889   10.03954879355715    0.61876618350670
H        19.73318885664280    9.75435851035202   -0.88182805271230
H        20.59420515450170   10.38297451354687    0.51793864071824
H        21.65686174088305    6.80753883786259    0.01106928141691
H        22.30258370665532    8.42246255900310    0.33306155435190
H        21.38907178583325    8.10614921026775   -1.13749161561958
H        13.39117238010234    6.94090796939257    5.26852680052737
H        14.34368532516823    9.64344850489022    2.03255125659927
H        16.04405689343222   10.14200921645426    4.04387697676272
H        15.45177497218580    8.42825158463012    6.04213259880849
H        12.51122789955297    7.98919572995147    1.48551870219885
H        13.42673085486734    5.70291385174405    1.97671159843716
H        11.75806673579205    5.78620333632974    1.40897428638592
H        12.65056805595425    5.25693187428877    4.26997428225049
H        10.25852235890617    5.10992698095741    4.78815896784925
H         9.84139793896843    5.48194122247818    3.11769540548808
H        11.24761214484676    7.36617369145139    5.07306529483712
H         9.58007108322994    7.44815882794956    4.52621021750002
H        10.28202836129657    7.78255386888504    2.21487680745120
H        11.54081483685616    3.09794323218931    3.89568423467697
H        12.86206609289856    3.33531158190510    2.75854349472012
H        11.19015448774050    3.54237602621581    2.22641941873986
H        11.80736840285838    9.76641694633306    3.95203509280692
H         9.60631818942268    9.59048362105958    4.97412035880169
H         8.81483786160240    9.59167044596714    3.39228063772875
H         9.62529218141423   11.03775916100217    3.98292083186272
H        12.06006136048653   10.08975809756820    1.46431667487585
H        11.10818593868066   11.37263698702104    2.19116876285686
H        10.30491563542102   10.08030080973247    1.30777700973512

