160
CSD_code = QASWEN | q = 0 | S = 0 | Stoichiometry = C86H58Cl3N11ORu | MND = 6
Ru       13.56699824845941    8.38257097815906   27.81828662892195
Cl       12.37284698838657   10.12051116006506   26.71779745876039
Cl       14.67363168621831    6.46848996615903   28.68554822093824
Cl       15.44858482082748    8.77952765034344   26.48384668811685
N        14.11129784795440    9.39386387415916   29.02612071200623
O        14.48117487380294   10.08834457949301   29.86216577453130
N        11.79990980086297    7.84877288480093   28.85986740371846
C        10.58863014299807    8.03593151776013   28.33472188813702
H        10.55241074067253    8.46491145656419   27.34043697336820
C         9.42974660494408    7.74243327505275   29.02402432505282
H         8.47121182164867    7.91030123272374   28.55886613859450
C         9.50454651984602    7.21912852564809   30.31568732860986
C        10.78148194733592    7.01829656318416   30.84337791645711
H        10.90354320548799    6.62673674783007   31.84089513893893
C        11.89183142582573    7.34673699625643   30.09329566972386
H        12.89152308931550    7.18385427336016   30.47839942178188
N        12.91994847672468    7.11969727653220   26.28080093708919
C        12.53845756675237    5.85701009002874   26.50734109971950
H        12.42953349301210    5.55396708936110   27.54270965528844
C        12.32114055595131    4.94539999493751   25.49627138453129
H        12.02072602940201    3.93783945238931   25.73801582412677
C        12.49831320535933    5.32904441048953   24.16517853647126
C        12.85398685552301    6.65855768791838   23.93983572072202
H        13.00958671032891    7.02000947477541   22.93581665819643
C        13.05649008511657    7.50818895783119   25.00847103215555
H        13.34973997207462    8.53766075284465   24.84044956416270
N         6.24094038376896    7.90209291776809   32.00540139748648
H         5.85194851404009    7.05635672918997   32.40328446344196
N         3.92189733185691    7.25248765137632   33.65090662048450
N         4.74868352822974    4.47846916818913   33.88577297476358
H         5.11118137171572    5.31366659771193   33.44275519590043
N         7.08482469822068    5.13102138775600   32.26637672220811
C         7.41894180665606    7.97055461407858   31.33069469638855
C         7.62817423257611    9.33786652082715   30.98964325839475
H         8.48286013680524    9.72610011950145   30.47154142051634
C         6.56935229327707   10.05172037992371   31.46456769357136
H         6.42124763716476   11.11098685606235   31.39543518293394
C         5.68224771517588    9.14172477442555   32.10649307157658
C         4.47907769960085    9.46052877463672   32.73350804157140
C         3.65571268010402    8.55362215240713   33.41078724395392
C         2.35172089417870    8.91887990675114   33.93832568883203
H         1.89434222732985    9.88388622727594   33.84321176837867
C         1.85441942366611    7.80853660108088   34.51451366158945
H         0.90500962621363    7.67262683100780   34.99370806912400
C         2.85980127493923    6.77435726549922   34.33807129284978
C         2.69552306568790    5.46972127774635   34.80959750233654
C         3.58679652847567    4.41748688508558   34.59283397338874
C         3.45318191037743    3.08123435105000   35.06392652152372
H         2.64457267571207    2.71945675112730   35.66763858012992
C         4.52653323652407    2.37193148841219   34.61297712212183
H         4.72997558586048    1.33166254194397   34.77336021882746
C         5.35235768159107    3.25967489370353   33.86757858389506
C         6.53755112477482    2.92958130853911   33.20592197428693
C         7.31960370901449    3.81192002381296   32.46059324511175
C         8.55257643238661    3.40978566090792   31.80476187050930
H         8.96613891410045    2.42094966207909   31.81562630026202
C         9.04313529168817    4.51507218743929   31.21391266069487
H         9.92926069549280    4.60655559113394   30.61670834272937
C         8.11520855815854    5.58967811045041   31.52858951760290
C         8.29199066890213    6.90717602106549   31.08651349474411
N        11.20681452795124    4.02573986415358   20.90392618382315
H        11.65961749569643    3.15362214777864   20.66090149800020
N        10.98297816095940    2.10439059259059   18.71798601966599
N        12.82820526021402    0.27582414813469   20.01444018755063
H        12.48530012612181    1.21104742394212   20.19492726770103
N        13.03192572738135    2.18560118941187   22.21158936007393
C        11.43419695446625    4.72450425404979   22.04747925692908
C        10.56143496350222    5.84960974564150   22.03049560358387
H        10.47733081578900    6.58222812251235   22.80892804787300
C         9.84803260433683    5.80603178798783   20.86996513437635
H         9.09347534106561    6.49625067016828   20.54852347579876
C        10.26516749855383    4.65446198105318   20.14475767035766
C         9.80612307792732    4.25134778645360   18.89161615889114
C        10.19623306284802    3.08404883675349   18.22523671558704
C         9.79231335697130    2.78326441940883   16.86211178531955
H         9.20018955071161    3.42237646762567   16.23711639763355
C        10.33855702704467    1.58974489197042   16.56230449090182
H        10.28762384859565    1.04482760019811   15.64029989666983
C        11.06698383800570    1.16768444475153   17.74645335275342
C        11.74669085617439   -0.05035143590896   17.82863547973284
C        12.52865516781314   -0.46139738518452   18.91004214938493
C        13.15845949536537   -1.72735967197494   19.06918353394851
H        13.08885349373313   -2.54073210283293   18.37414867605699
C        13.83069188705688   -1.71171214301125   20.25548404732964
H        14.39989506111245   -2.51055929459326   20.68809038289242
C        13.63293653460312   -0.43418319505143   20.85032067665738
C        14.17487347779468    0.01627105839998   22.05718967922604
C        13.92231611274482    1.25985335274108   22.63863417476350
C        14.62686653091377    1.73320277463192   23.81859111327840
H        15.41383372176601    1.20757422037404   24.32193376657530
C        14.11967504357608    2.94772247751947   24.09929557326673
H        14.41580389735274    3.62213935885844   24.87832759051229
C        13.10244232909652    3.20485783474109   23.09150954870431
C        12.33511021769846    4.37739145185835   23.05859046914923
C         4.04922872833421   10.87364620948938   32.67892301856116
C         3.79846237889848   11.49381318012474   31.45848921978499
H         3.90479039748881   10.92737137409953   30.54455076476694
C         3.39720822533257   12.81664612256860   31.41528769153878
H         3.19945820640674   13.28614215850535   30.46288679243540
C         3.24899406596400   13.53819993487837   32.58803087143635
H         2.93858910163564   14.57174337003579   32.55269010347092
C         3.49980008579666   12.92936630841263   33.80649748284930
H         3.38785778994889   13.48832876662013   34.72390131381287
C         3.89412563647484   11.60491315512990   33.85330276767563
H         4.09637007679869   11.12971575733960   34.80234323466434
C         1.47945004248247    5.16677572411621   35.59471747929602
C         1.25997666310103    5.78932314831927   36.81991222144624
H         1.99099194072689    6.49110236997335   37.19481095553100
C         0.12441688646997    5.50460357281802   37.55608621575567
H        -0.03361749995799    5.99038005120274   38.50779000873482
C        -0.80841129218589    4.60088896980088   37.07514753641252
H        -1.69661708367167    4.38214310868632   37.64892924480541
C        -0.59906848490462    3.98018558888242   35.85493640163754
H        -1.32590618646747    3.27801355613607   35.47354155943366
C         0.53931133132852    4.25728944289550   35.11990825011099
H         0.69934242832652    3.78083688724512   34.16338996281247
C         6.98751292554332    1.52341824419993   33.31453853482862
C         7.38155277343321    1.00532304406081   34.54416322312446
H         7.36670448032284    1.64287207581813   35.41636280760019
C         7.80369211028507   -0.30777494676681   34.64704335872381
H         8.11350335575862   -0.69800603594693   35.60536527958418
C         7.83024383768591   -1.12021778904061   33.52582698581315
H         8.15843201098977   -2.14568381569842   33.60752484944810
C         7.43510768513480   -0.61289679351871   32.29930741757595
H         7.45222321032717   -1.24315655373169   31.42220958236304
C         7.01814541307350    0.70157251594075   32.19235922288040
H         6.70487487257095    1.09797124775312   31.23711929771683
C         8.83657805054648    5.13855122985789   18.21534609111371
C         7.56460099696178    4.67461161118993   17.89149856179776
H         7.29039500010764    3.66130997137071   18.14787909617364
C         6.65615193406136    5.50437937979720   17.26026123129978
H         5.67049581785329    5.13474567185421   17.01769920319247
C         7.00782881135441    6.80485100550347   16.93834879742561
H         6.29904685843213    7.45073681656667   16.44175953975121
C         8.27241167916550    7.27329840942303   17.25391248367642
H         8.55305223867387    8.28531012685072   17.00110104660567
C         9.18057127077688    6.44799994411292   17.89173303521484
H        10.17097859149564    6.80925948199527   18.12833266972593
C        11.64036376309991   -0.98531554216791   16.68936666500194
C        10.40519302839618   -1.49876143578600   16.30474466397778
H         9.51983859712284   -1.21438401378832   16.85485894229737
C        10.31256038905886   -2.37519345049502   15.23909042995882
H         9.34930932863040   -2.77103458633330   14.95229931086563
C        11.44977498788189   -2.74485786759506   14.54042397089594
H        11.37561072793749   -3.42627812387163   13.70607157839727
C        12.68239577309165   -2.23664266891736   14.91509298918381
H        13.57190135666545   -2.51889979108347   14.37116714055664
C        12.77909053547675   -1.36605703842643   15.98503103540451
H        13.73885788077557   -0.96158528002814   16.27241855150443
C        15.09638027727300   -0.90021911088038   22.76099207563341
C        16.27334735902615   -1.32680175647180   22.15259331665168
H        16.51702913999885   -0.97030860774768   21.16215366920127
C        17.13527910813275   -2.18017917736524   22.81688845312628
H        18.04985368739977   -2.49813114559738   22.33811479579469
C        16.82993310499624   -2.62423738513772   24.09268227646675
H        17.50330434453504   -3.29141578191366   24.60979219000983
C        15.65932866826126   -2.20711602912585   24.70405441459481
H        15.41645777954620   -2.55061336262854   25.69892495833793
C        14.79902497764385   -1.34828096398174   24.04501505838328
H        13.88321848998929   -1.02507325294904   24.51865626400311

