33
CSD_code = QASXIR | q = 0 | S = 0 | Stoichiometry = C14H14Cl2N2Pd | MND = 4
Pd        1.33328974004985    2.32299794654700    0.38141893814977
Cl        1.53647596034904    3.99962514493032   -1.05318949134121
Cl        3.46395000543852    1.79120884076852    0.02729159289978
N        -0.69030793264792    2.43827592878897    0.46005024038983
N         1.00362196334461    0.99207594662286    1.80568981198064
C        -1.21004753083745    1.45544937535888    1.23663390436141
C        -2.58613467926802    1.21313743282404    1.27851863180692
C        -3.42808780164421    1.98614353280297    0.50541804730914
C        -2.87798282293238    2.98850836486667   -0.28895588082407
C        -1.50775343350805    3.18076753668778   -0.28130344200200
C        -0.24256272406578    0.75890433996815    2.04092521765100
C         2.07549506822882    0.59634972084122    2.68282790132083
C         1.66085156061128   -0.15591213621245    3.94908728169488
C         2.85971500213717    1.85406072592358    3.04754002980481
C         2.23795295285032    3.10065995850836    3.13527051844052
C         2.98694271679352    4.23025477150490    3.43140432277225
C         4.34883002252102    4.12652822576353    3.65421879665436
C         4.96220941290027    2.88709511969732    3.59586388141730
C         4.22325212648001    1.75875582074902    3.29023313317261
H        -2.96748420080369    0.42285123900355    1.90623522029484
H        -4.49363936614015    1.81590971639553    0.51604823128490
H        -3.50414740999428    3.61262521770265   -0.90521912368141
H        -1.03180587428235    3.95067104646319   -0.87862115713856
H        -0.58889954230037    0.12467653010151    2.85175395945903
H         2.74963941467093   -0.03219306080895    2.08204766603820
H         1.16515378255256   -1.09385581178011    3.70681473357532
H         1.00386722153199    0.45585248977530    4.56484100256201
H         2.55306029671848   -0.38141448164401    4.52650721916146
H         1.15627047069032    3.20186231245654    3.02823473057819
H         2.50001329381356    5.19264540183672    3.48534742910560
H         4.92991819559499    5.01017089040535    3.87001826112838
H         6.02377300184147    2.79929157090993    3.77052194097016
H         4.71287110931739    0.79962034224559    3.21302645100890

