160
CSD_code = QASYIU | q = 1 | S = 0 | Stoichiometry = C63H86N2O6P2Rh(1+) | MND = 4
Rh       25.32044035526804    6.74447773875410    8.65106222671282
P        25.21371828331929    8.82795729789513    9.40947929723488
P        25.39549162744045    4.51777316773566    8.47343492847921
O        25.64820865578162    8.63496935881111   10.99139399894172
O        26.20405213189460   10.05901702993803    9.18641634336296
O        23.75575042754783    9.46218222509589    9.41792436137270
O        25.65221063756532    4.12226073846495   10.07229764845722
O        26.43204097740516    3.43230458678559    7.94163463849574
O        23.95864396409613    3.90674622539400    8.14706648703497
N        25.71545584969655    6.37717744539459   10.51988437015675
N        24.85828871165536    7.18907864021298    6.90178340863937
C        25.79990002537678    7.37552187143342   11.41661984802330
C        26.02832121370537    7.13959749530499   12.76429849387205
H        26.09326431090346    7.97777403933824   13.43594292510757
C        26.15835328180185    5.83093046103141   13.19775060242169
H        26.34000465550926    5.61931404403339   14.23866178406483
C        26.03586543174887    4.79786491913113   12.28627454635008
H        26.10600056738595    3.76271291162349   12.57287722057037
C        25.80331241819302    5.10914177143397   10.95195829246679
C        26.06174272552458   10.67032415514628    7.93392663112958
C        27.00840697262155   10.49015852162187    6.92539927668335
C        26.74391004880273   11.10740589346087    5.70401273967915
H        27.44945899064002   10.97965661380309    4.90528006935253
C        25.62060777495196   11.89336727523205    5.47346869522677
C        24.73782427956360   12.08868217396461    6.52669041026488
H        23.86769843634758   12.71446020492112    6.40882745555108
C        24.94275935689219   11.48128426567114    7.75843993092366
C        24.01822597920106   11.78489756529184    8.87195160313731
C        23.43400873002498   10.80173696622452    9.66428556936751
C        22.47101724549453   11.11698103290696   10.62749074211913
C        22.19887634506988   12.46445603238917   10.82121689656214
H        21.48140308884442   12.74185636433886   11.57168855130405
C        22.80862324828890   13.48400670135146   10.09510688165641
C        23.69858782533577   13.12108236326109    9.10083782560368
H        24.18512761702150   13.86237345981927    8.48990991291765
C        28.31993767469546    9.74735219649006    7.17244544592136
C        29.05896275579894   10.45298267281439    8.31950968399117
H        28.47668140598167   10.43634427450387    9.23524434599513
H        29.25573163597436   11.49003019734472    8.05684895823299
H        30.00975537770524    9.95936509440743    8.50637158502393
C        29.23770368772495    9.77187206699487    5.94357074687064
H        30.17304148514060    9.27446722076317    6.18903436548659
H        29.47707690818665   10.78995676906318    5.64840505401638
H        28.79156050529975    9.24568814394163    5.10252875001651
C        28.08983943324111    8.27016109720340    7.53100178789396
H        29.04380603774348    7.74735823492755    7.52268426867287
H        27.43676919630439    7.79863500937349    6.79600079523152
H        27.66647526570535    8.15375661232400    8.53152859606428
C        25.36777585792156   12.59630461180838    4.14700224706503
C        25.42394242223533   14.11075457690152    4.39624878006336
H        24.63966156230591   14.42836524936589    5.07735504068128
H        25.29930636538998   14.64797014449725    3.45942203295154
H        26.38402877936888   14.38679154428792    4.82637697696027
C        23.98234168912327   12.21790569940135    3.60393182546375
H        23.19778366338925   12.41550911320696    4.32840001453609
H        23.94775149706009   11.16334594167280    3.33784391449866
H        23.76880878404982   12.79772375500061    2.70946244272389
C        26.40767189248882   12.24827690846265    3.07832947641181
H        26.15061792084119   12.75455385354396    2.15104703133311
H        26.43180501824950   11.17903269690966    2.87788043103172
H        27.40016759536682   12.58018841960968    3.37197810210375
C        21.70546634405401   10.03341765086272   11.38249740739264
C        20.70429374244502   10.62228986703220   12.38305761778175
H        21.20942984228382   11.20313258356638   13.15113257171321
H        20.17258547344053    9.81058697819299   12.87485351412313
H        19.96438438553796   11.24375299992506   11.88499792197852
C        22.66402010834500    9.12333900611577   12.16610792050685
H        23.41843988851338    9.71411790305361   12.68154493632277
H        23.15993682441004    8.41406645378593   11.50995636531437
H        22.10882844152149    8.55344155964494   12.90820769307976
C        20.91283059249195    9.19994149237878   10.36333578176287
H        20.33745847147688    8.43547266323942   10.88110672606405
H        21.57364433325445    8.71328482793749    9.65155567536974
H        20.22198733798188    9.83645895457150    9.81447877010894
C        22.46094866614752   14.93092212055768   10.40607936310561
C        20.95614608195440   15.14522552903205   10.19082301279469
H        20.68264825228561   14.90303867017045    9.16605384099423
H        20.69933587043708   16.18476881894243   10.37876508533802
H        20.36409089163231   14.52556068669681   10.85804304680167
C        23.21741778180063   15.91928409613294    9.51473177295979
H        24.29272145835398   15.81879073865732    9.64126662819124
H        22.94211723100456   16.93498364412214    9.78856522989676
H        22.96421811263750   15.77691686731904    8.46670009986029
C        22.82616779290188   15.22614934019831   11.86748421255996
H        22.26564430315210   14.59794718615944   12.55385516124226
H        22.60650487643124   16.26461155525873   12.10267961806422
H        23.88722102737447   15.05254661265375   12.03299588340897
C        26.16457718628434    2.51566647222544    6.92517620221861
C        26.95025340042687    2.50849325216827    5.77108696892621
C        26.70341781448840    1.50292280926337    4.84124270839786
H        27.29647871037754    1.47682993733160    3.94744197338283
C        25.72630653159861    0.53189820324822    5.01486432346602
C        24.96426246253398    0.58285008672089    6.17218629041621
H        24.17971592066363   -0.13654604833684    6.34441635470416
C        25.16813381454770    1.56314283869573    7.13495195843697
C        24.29596485171118    1.54336473687134    8.32920737196636
C        23.62453970514337    2.68495552713029    8.74970875417107
C        22.63566655003533    2.64888143344356    9.73407306486530
C        22.43583584476710    1.42488987177434   10.35983681781456
H        21.70160234782746    1.35780450986911   11.14220500979979
C        23.14446061795324    0.27169395423450   10.02933307990328
C        24.04456290014000    0.33886239458192    8.97948333186126
H        24.58825627609825   -0.53128267701909    8.65313987487558
C        28.04209048692379    3.54984668970850    5.54095761135712
C        27.43153780796179    4.96142987844988    5.55232005232158
H        27.16546456193753    5.28078360223398    6.55815748862167
H        26.53851218570030    4.99256286356967    4.92985625274122
H        28.15279982392590    5.67352668752746    5.15721439877763
C        28.74503697443681    3.36764902439054    4.19002641907692
H        28.04835544563396    3.47834370489297    3.36238553542783
H        29.23242983561832    2.39863348194460    4.12491884292901
H        29.51477279939470    4.12899593601421    4.08393598255848
C        29.10929812143165    3.42385494776342    6.63724454606139
H        29.89327236840996    4.16037047323521    6.47579398443295
H        29.55684220720715    2.43303245570907    6.60868663692628
H        28.68623342468618    3.58104203663756    7.62395696050329
C        25.46589040872661   -0.56719766727989    3.99677205755507
C        26.40859631066845   -0.49792010314405    2.79273646505842
H        27.44619215110067   -0.60547538912821    3.09955917327774
H        26.28795072821828    0.43691854376462    2.25042090314718
H        26.17753275643398   -1.31109322886138    2.10864955562606
C        24.02370920944252   -0.43977672645804    3.48624616965493
H        23.82058274979122   -1.21304176563457    2.74944988964932
H        23.87392180864628    0.53056651949672    3.01757082248425
H        23.30473267201895   -0.54293537521368    4.29401241845202
C        25.65915118075408   -1.92960517554337    4.67745867077189
H        26.66776990684937   -2.01175984001360    5.07647183466138
H        25.50775935559935   -2.72989947384808    3.95728567627742
H        24.95558179044457   -2.07116220818594    5.49275716119890
C        21.74660214617110    3.85987056846824   10.01760125293324
C        21.02508472095232    4.23096531440396    8.71261635175468
H        20.43755865144739    3.38804716442074    8.35554288799323
H        21.73409645387397    4.51034483896675    7.93878808727306
H        20.35513332491868    5.07024925537658    8.88590583603889
C        22.53867787337757    5.07612213976294   10.52570266045946
H        21.84390432058420    5.82347062322939   10.90456410774567
H        23.12074504197147    5.55158250822806    9.72801434960354
H        23.20193788361081    4.78741990165393   11.34016633738200
C        20.67642623872024    3.54628426024812   11.07054158639737
H        21.12459505938443    3.31320547630208   12.03389130046123
H        20.04532776706095    2.71940370363991   10.75558241973451
H        20.03659014430378    4.41623297663006   11.20138973251968
C        22.87852036750055   -1.00913559142259   10.80519687323327
C        23.19683588948877   -0.76781338243353   12.28751712611468
H        24.23823909587571   -0.47592841613574   12.40588147815945
H        23.02823278396420   -1.67868065655531   12.85670442928483
H        22.57162054492781    0.01465079524525   12.70837486065206
C        23.73688435377743   -2.17907698758593   10.31726742954917
H        23.51517651049221   -2.42380236303829    9.28125262385614
H        23.52309826796986   -3.05882654814569   10.91974114385623
H        24.79683301526804   -1.95661564505792   10.41448141195541
C        21.40221692519746   -1.39861163363398   10.64519891517887
H        20.74118581602761   -0.64205970555279   11.05815594763100
H        21.20766373985506   -2.33541255282749   11.16154583785580
H        21.15823990341065   -1.52860219927749    9.59307954890400
C        24.59577716224400    7.69046784833774    5.89802998371984
C        24.30903317478413    8.32985471533482    4.65405429010278
H        24.77231107633390    9.31866534907142    4.65378231207049
H        23.23133990995769    8.43856590675963    4.53427381407936
H        24.70276508178070    7.73997267091030    3.82643230071681

