188
CSD_code = QASYEQ | q = 1 | S = 0 | Stoichiometry = C79H98NO6P3Rh(1+) | MND = 4
Rh       12.31163293413932    2.93264610572377    0.27324313698127
P        11.42782098411973    2.10497273272300   -1.60924509033169
P        12.55944623654265    4.01355147300112    2.21992034434641
P        14.33252625624907    1.94305764356071    0.12536246773995
O        10.11775899725062    3.12780620925242   -1.79783553324273
O        10.57103185176053    0.80822170805926   -1.97047230447134
O        12.32679228330370    2.42655684940566   -2.88624396669589
O        11.45938010968954    5.24746881012259    2.04609049829859
O        11.77967002592492    3.40766095187576    3.48815871825938
O        13.82945656228313    4.75096024311740    2.82717906025935
N        10.72748077059559    4.14514907325997    0.16896622652432
C         9.90676914566685    4.07627688052724   -0.88813127558846
C         8.85906739974761    4.97141838155457   -1.06430939512587
H         8.21947028026645    4.86244856081135   -1.92303265518343
C         8.68591724989905    5.97883765768306   -0.13152140641724
H         7.88079671822667    6.68692440314367   -0.24142460364340
C         9.56394558387902    6.08336371471523    0.93314177684716
H         9.48330995916832    6.86103556682178    1.67256859874027
C        10.58322274222747    5.14716829149702    1.04755521743043
C        10.77849817239562   -0.13483470426396   -2.97339410347768
C        10.62185372331441   -1.49662796281865   -2.67376903730829
C        10.90473629323005   -2.40285788413075   -3.68642646206349
H        10.82457642492140   -3.45323857731589   -3.47373846378420
C        11.29240457675649   -2.02626259555977   -4.96915093864735
C        11.31534425245673   -0.67426692247747   -5.25339111207330
H        11.55729509327865   -0.31878490301645   -6.24037849994567
C        11.04734693430882    0.28162655567895   -4.27490991627967
C        11.00708583705556    1.68659941961296   -4.73546839699440
C        11.70555618432342    2.71190141839196   -4.10934169137881
C        11.81461939128748    3.98205963395481   -4.67600404293429
C        11.09662843375735    4.21180750931684   -5.84616208297352
H        11.14683592909462    5.18598501855037   -6.29359405808673
C        10.31281690320255    3.24175750709313   -6.45736574588384
C        10.30860841163892    1.97057484780292   -5.90296182007586
H         9.74478069634665    1.17390635714187   -6.36152322945293
C        10.11013662871436   -1.98270153708858   -1.31969118353457
C        11.13524911096795   -1.68422590718340   -0.21982626371115
H        11.29230397832558   -0.61421097351801   -0.10617154660514
H        12.08428999842330   -2.16635707424793   -0.44787473260717
H        10.77955543507965   -2.07983079073130    0.72898597644513
C         9.84702931079741   -3.49396800037274   -1.30072880636228
H        10.76514960762142   -4.06304813382304   -1.42678527471224
H         9.13373169522244   -3.78047366778798   -2.06932627401835
H         9.42317143751400   -3.76662255487669   -0.33670872069031
C         8.77629526377454   -1.28888258207337   -1.00459008291981
H         8.37264024007847   -1.67260792546856   -0.07000973026412
H         8.05677937679151   -1.48884218710391   -1.79550388320997
H         8.89466020325552   -0.21470875651178   -0.91067261242583
C        11.64210986538776   -3.09588013985012   -5.99084711835777
C        12.83100695975636   -3.91305439857051   -5.46503916433907
H        13.09587875907627   -4.68681294896701   -6.18138363533307
H        12.59750616360980   -4.39374410818523   -4.51898634165157
H        13.69699066157576   -3.27030704593496   -5.31897431422244
C        10.42999925337812   -4.01446038598502   -6.19803388841186
H         9.56850402908684   -3.43463505897535   -6.52185668598558
H        10.16486678988429   -4.53992630539733   -5.28515054955737
H        10.65227450150221   -4.75569876900055   -6.96170367069614
C        12.03176706621368   -2.50302359188703   -7.34730668807943
H        11.20468269787081   -1.94966888308709   -7.78545547256729
H        12.29374076258567   -3.30722595512867   -8.03082571629780
H        12.89353021321776   -1.84576204921079   -7.25698759452465
C        12.73531257118917    5.04892126867240   -4.08663209587653
C        12.25797626382228    5.48520159177296   -2.69401058973006
H        12.83790491221560    6.34309747276717   -2.35815674536220
H        12.38509658656920    4.68696648626236   -1.96057415840431
H        11.20818429084062    5.77403590859739   -2.72364096094514
C        14.15806246003264    4.47522087783151   -3.99924378214783
H        14.50282698221443    4.18545318610980   -4.98940747195843
H        14.19873290448598    3.60190069034190   -3.35533378995130
H        14.83882794974555    5.22639833320652   -3.60456029576887
C        12.79789710185328    6.30847377803722   -4.95952074844629
H        11.83313331391099    6.80786584620709   -5.00875769491820
H        13.13499469450624    6.07341011774484   -5.96560058516775
H        13.51101214539252    7.00670455897996   -4.52654830272677
C         9.49838946478474    3.51107227818660   -7.71317608349031
C         9.62135690324734    4.95604688146246   -8.20340122668572
H         9.27391893809692    5.65882406253625   -7.44968188895167
H         9.00589309192015    5.08782000811798   -9.09022683268658
H        10.64753682359391    5.19459009632702   -8.47263469774911
C         9.98726943781854    2.58203613887905   -8.83340878714707
H        11.04698239955964    2.74178444149243   -9.02048810814376
H         9.44120388968544    2.78694835228540   -9.75091388375404
H         9.83788843586596    1.53691210244279   -8.57781873934244
C         8.01927090281712    3.23057754537338   -7.41271484796228
H         7.86340025204777    2.19998876400645   -7.10666006639753
H         7.41784115918024    3.41670514776078   -8.29914759444904
H         7.66677121954783    3.88097193254610   -6.61495312751776
C        12.41727584222559    2.71850797091101    4.51398664826783
C        12.11965853472260    1.38112521575382    4.77662190841441
C        12.79101256128761    0.78461248580360    5.84007710835073
H        12.58775353498155   -0.24632968832552    6.05645771879606
C        13.70299311731285    1.46060155358770    6.64114836843258
C        13.91495861010925    2.80779214812214    6.38403680021164
H        14.58119767386944    3.38913310650135    7.00172652408089
C        13.27583390439984    3.44931813903699    5.33164277535262
C        13.42225355202476    4.91388608411818    5.19006720255658
C        13.71457921984534    5.54586735045793    3.98624396660449
C        13.95238042295756    6.92262059726487    3.92750031708165
C        13.77018913011695    7.63907236754195    5.10317441912086
H        13.91638178805629    8.70349670190701    5.08401627573094
C        13.40767343871781    7.05501848353398    6.31325568418109
C        13.27232113508927    5.67969523523589    6.34405340139084
H        13.02249186536137    5.16388214957473    7.25554401842192
C        11.03335235421532    0.63909713739212    4.00597762337369
C         9.70589411874332    1.39156940931702    4.18843247838453
H         9.46029837411805    1.46753761097151    5.24539391919122
H         8.90320210051630    0.85558212575641    3.68659630110779
H         9.75808185875336    2.39463115458361    3.77680650845997
C        10.82863297568464   -0.79063632241095    4.52304416470533
H        11.72689819134490   -1.38980345870312    4.39258384198859
H        10.02720861921278   -1.26284999584621    3.95908807822338
H        10.53874921727088   -0.79428682178817    5.57040318631100
C        11.36815086506705    0.52221153834412    2.51345703414220
H        11.41008815641824    1.49762042738967    2.00852141358063
H        10.58901396486610   -0.06113775009825    2.03038807961666
H        12.32183565039005    0.01399763560695    2.37939577728304
C        14.40473578763647    0.80248904641992    7.82038048832823
C        13.90885520117600    1.47854092018838    9.10736437458127
H        14.17753327471495    2.53106403492737    9.12822434282414
H        14.35069628533622    0.99713374615654    9.97635472125267
H        12.82654709447143    1.39936471977821    9.18276499626622
C        14.11540988805848   -0.69755884501592    7.92083877608729
H        13.06216007762215   -0.88410066013664    8.11515174145091
H        14.68413068181365   -1.11864498557924    8.74669550006966
H        14.40983135606439   -1.21610473915530    7.01103735591292
C        15.92451192192110    0.98307401431720    7.70031833678546
H        16.30622523421862    0.45112422040314    6.83127941215296
H        16.41341921787892    0.57997857943026    8.58403216794725
H        16.20099353970280    2.02972783881333    7.61109956118014
C        14.51402006167968    7.59844899073867    2.68004297274447
C        14.68658540313799    9.11166608499299    2.85997485453267
H        15.10023955661417    9.53271398558832    1.94610167302382
H        15.37843691946988    9.34058124521908    3.66632895631666
H        13.73305383442206    9.59921151810573    3.04984019944370
C        15.90476948848979    6.99335168433875    2.43665682298031
H        16.37071638652902    7.46188851187348    1.57348066945555
H        15.84075246288401    5.92401674502345    2.25741551857927
H        16.54064322087584    7.16022152742602    3.30364629412530
C        13.62190718256568    7.39017351863404    1.44917497589067
H        12.59502012010237    7.67143591837696    1.67390203468215
H        13.63993111781159    6.35903503923732    1.10879788617772
H        13.97745681130398    8.01575861597074    0.63282990502539
C        13.20501868589706    7.93493108198872    7.53614269916902
C        14.51090934955396    8.68240155992546    7.84033890753585
H        14.79430942680494    9.34131331755079    7.02463277368824
H        15.32076560371349    7.97520387483520    8.00614226120607
H        14.39241658568640    9.28609142539001    8.73674642340696
C        12.81400489882500    7.12959638767816    8.77795421276030
H        12.66535823521156    7.80737780996331    9.61526230742444
H        13.59730731104404    6.42724452875529    9.05304600217599
H        11.88549597770418    6.58670544982369    8.61789023691892
C        12.08373709559731    8.94172429444711    7.24399544114849
H        11.91191850481461    9.56986098077844    8.11463250355331
H        11.15956825806125    8.41788489440720    7.00936242069078
H        12.33424180100924    9.58587483430683    6.40587205053503
C        15.62787669933436    3.22072507697828    0.16685572440918
C        15.30226492473213    4.45050858365842   -0.39773329695620
H        14.28311487799067    4.61663757626940   -0.73669514608747
C        16.26487558327189    5.43143903818269   -0.53878728943375
H        16.01159665642565    6.37902947370545   -0.99038799490203
C        17.55742885834242    5.19562953277033   -0.09666514614006
H        18.31315422957899    5.95880209829823   -0.20367177466017
C        17.88044893376102    3.98239856379895    0.48916085882473
H        18.88571919374818    3.80385508105660    0.83976893136602
C        16.92382128633642    2.98969842381290    0.61419257954393
H        17.18308706696330    2.03594694659831    1.05131895679787
C        14.88380395637790    0.77027277146402    1.40435874106877
C        15.00243244977007    1.28281171034984    2.69447935462689
H        14.79886740386321    2.33226045821617    2.86715552212346
C        15.39184380585849    0.46681707649536    3.73714786808423
H        15.49170109312623    0.87966252664539    4.72794378301862
C        15.64272812259119   -0.87700720293450    3.50492869500549
H        15.93911523301487   -1.52025064043059    4.31961176357247
C        15.51884890603929   -1.39393345530211    2.22649689531292
H        15.71934035821142   -2.43908988015221    2.04444484924355
C        15.14420097561189   -0.57499679391731    1.17407545807634
H        15.06648066886078   -0.98005485492851    0.17585663909590
C        14.72344039099927    1.11055302174192   -1.45266798422412
C        13.90876586921574    0.04970547057849   -1.83747379826535
H        13.11063305078006   -0.25967522823216   -1.17919689025445
C        14.11827184127151   -0.60493175250757   -3.03562963004771
H        13.48654424852642   -1.43443581688443   -3.31461030883924
C        15.13193938261615   -0.18226398585857   -3.88066847004836
H        15.28896755628694   -0.67827066166719   -4.82639953379907
C        15.93999506396806    0.87883955402254   -3.51147755254861
H        16.72809575626759    1.21277351215044   -4.16951987548265
C        15.74480317568088    1.52189955034281   -2.30053703923220
H        16.38627928945532    2.34539180597246   -2.02489234387076

