93
CSD_code = QATBEV | q = 0 | S = 0 | Stoichiometry = C45H35MnNO6P3S2 | MND = 6
Mn        4.29081887064816    1.56137373029552    2.67923504626330
P         5.95955836742187   -0.44865209833210    0.14639210405266
P         7.11184318825058    2.22937891897606    0.38696032483569
P         2.42537784606139    2.39987525623407    1.67829214230079
S         4.09419004981172   -0.07341177700893    0.79455073411317
S         5.56671548947396    3.17862637972779    1.24695234804578
N         6.88021833193584    0.79481027309706   -0.32134973614957
O         6.90993455438879    0.48860731478351    3.41667941428736
O         2.71281070930830   -0.33875614074309    4.25291950157787
O         4.50161315043876    3.40410706694834    4.94935382093444
O         1.37759331641286    1.19707598554494    1.54213013477461
O         1.48418456335287    3.41211480877719    2.48419774423088
O         2.38064090941512    3.18998041463742    0.26680548941915
C         5.86983339663682    0.88284379473514    3.12014247120857
C         3.34846008510219    0.40452053438349    3.65072891051204
C         4.39254218023162    2.70920682380824    4.03707173404698
C         6.84780692392808   -1.56688634890858    1.28033576756227
C         8.19589296373121   -1.79085503280729    1.03707079772048
H         8.67013669851302   -1.29456940088896    0.20214456191982
C         8.90802651755789   -2.63785941812201    1.86427174672425
H         9.95925413995746   -2.80970126030782    1.68451289432484
C         8.27185364517302   -3.26420050741043    2.92455933970582
H         8.83074925658151   -3.92249192774096    3.57333122141794
C         6.92353063809172   -3.04831665826769    3.15756206458970
H         6.43016291032820   -3.53713771707705    3.98451534385611
C         6.20582602024311   -2.19832476959902    2.33573365691123
H         5.15452888789111   -2.00915815559671    2.51569438116539
C         5.74451374589652   -1.43010684554472   -1.35708062016875
C         5.97192236736596   -0.87782556439091   -2.60770930074244
H         6.30453971275667    0.14681914855838   -2.67727662353041
C         5.75892794527041   -1.64163935056962   -3.74146148693370
H         5.93537586159409   -1.21621563570869   -4.71895879599701
C         5.31537755637967   -2.94865866141085   -3.62392012646540
H         5.14850576223065   -3.54288193710352   -4.51046343515768
C         5.08060521867167   -3.49630809702117   -2.37191383750441
H         4.73064489184644   -4.51430861858125   -2.28350925370328
C         5.29328353086139   -2.73831758392046   -1.23602253901225
H         5.11073419976467   -3.14895737494067   -0.25203046140608
C         8.54428286754407    2.17835229787424    1.51447298113690
C         9.66345538428429    1.47466884685690    1.09002510385587
H         9.64509032928697    0.98735295963346    0.12494368666397
C        10.77720137843881    1.40665235724454    1.90415561113173
H        11.64843297342235    0.85466732462338    1.58257874033637
C        10.77389216028674    2.04710384359096    3.13368264124640
H        11.64325154003565    1.98840477150427    3.77200626604943
C         9.66198379971635    2.76193054758437    3.54679557980764
H         9.66237723127237    3.26130960955823    4.50423715620220
C         8.54271426241396    2.83262684831925    2.73701246398805
H         7.66346568501254    3.37933258576940    3.05430316652873
C         7.65222623532256    3.30417679319383   -0.96571148768024
C         7.68948403687874    4.67755042845985   -0.76327296992790
H         7.38636677094945    5.08099169790784    0.19279002366833
C         8.09535139265642    5.51026141223412   -1.78915863514879
H         8.11909396268434    6.57959687301750   -1.63843505721129
C         8.46897912699696    4.97290608100254   -3.01120137719747
H         8.78173624087126    5.62545762567312   -3.81332900408917
C         8.44297586051564    3.60163796110786   -3.20649019554587
H         8.73876609957332    3.18515937654772   -4.15858054954464
C         8.03711292168388    2.76414066175225   -2.18331718956322
H         8.01022200497522    1.69324594135348   -2.31811813602199
C         0.00065432275708    1.37448342927373    1.51238553678836
C        -0.73613455200924    0.90885963142921    2.59163422765629
H        -0.21554060072554    0.46689620301720    3.42749870477945
C        -2.11466681345461    1.01905188169481    2.57664483525071
H        -2.68838613763103    0.65545250210105    3.41599343986299
C        -2.75554834001133    1.59868531054670    1.49404812875545
H        -3.83152854147136    1.68788741872739    1.48627034921373
C        -2.01349492665180    2.06573466895977    0.42331583886376
H        -2.50817999036431    2.52074162146011   -0.42194953863411
C        -0.63313616693206    1.95604238952123    0.42605982713402
H        -0.05021918236373    2.31907773444802   -0.40639590387561
C         1.88447401476833    4.58083654416276    3.09257755457946
C         1.02682677187975    5.11551164368589    4.04527123107056
H         0.10815601115281    4.59693086902461    4.27229638284647
C         1.36685423467012    6.29397454658450    4.68323189020269
H         0.70152763728605    6.70849389857157    5.42553197597654
C         2.55590989170131    6.93600153951389    4.37831073839946
H         2.82056344033449    7.85252482993817    4.88338452175237
C         3.40358694108767    6.39852060519989    3.42607976387164
H         4.33276094554472    6.89144604085288    3.18378720364055
C         3.06959686853287    5.22288771016015    2.77601814782762
H         3.72530689463374    4.80105405240013    2.02654037904055
C         3.06554216274715    2.88991707386381   -0.89527595047159
C         3.92355502983103    3.84615864888848   -1.42179489837991
H         4.06140653598210    4.77878364804958   -0.89639710049171
C         4.60701300091714    3.57805226709444   -2.59337298220317
H         5.28819848741806    4.31496816262728   -2.99319196865840
C         4.43029590397870    2.36680001080869   -3.24125050701552
H         4.97495620957932    2.15740323295325   -4.15034911090104
C         3.55417570648385    1.42784469452484   -2.72500281536017
H         3.40971775260888    0.48193495873813   -3.22615348958312
C         2.86475241989029    1.68636161578970   -1.55314453046941
H         2.19110739953261    0.95295420294594   -1.13443818015789

