89
CSD_code = QATFAV | q = 0 | S = 0 | Stoichiometry = C34H46ClF5P2Pt | MND = 4
Pt       11.03459704943690    6.62274353087087   17.94117169100538
P        13.30480476328369    6.66045253724793   17.30274844935327
P         8.70421299776311    6.84082524312536   18.33255765854316
Cl       10.56909775458762    5.31933349375212   16.04239341003953
C        11.50683826336098    7.46159399419941   19.73623175117290
C        11.72780487850795    6.50988493258912   20.72876845336993
C        12.05686978998752    6.80302370905667   22.04090354598598
C        12.20200304402271    8.13165985369392   22.41730000186354
C        12.02494324560853    9.11934956275285   21.45989198925618
C        11.68720762334715    8.77226649339469   20.15701435317249
C        14.34639791258325    7.33237841925927   18.67103895366015
C        14.90845268912066    8.60423955535615   18.75471569617097
H        14.83721369438410    9.31181829875728   17.94730979358906
C        15.58224707722167    9.01709464215401   19.89302819274604
H        16.00197585652959   10.01181682573725   19.92244007985437
C        15.71582090786582    8.17798264325143   20.98269964324125
H        16.23912961473012    8.50604894207379   21.86764194443982
C        15.15856144153147    6.91251778194810   20.92332353664426
H        15.24334956215747    6.24058815658602   21.76492562437882
C        14.48003518858312    6.50754432162295   19.79056918592349
H        14.03501645080954    5.52668993907708   19.78254948123483
C        13.51835151075796    7.86374406071855   15.85012795609575
C        14.98595652838477    8.14191009619420   15.51415800682080
H        15.05070949048917    9.03565428535664   14.89415491534683
H        15.40701535139404    7.31702526321193   14.94295743133450
H        15.60991094865415    8.28819823202466   16.38978265012954
C        12.81117940601201    7.41455003360594   14.56455059852040
H        12.61395240984623    8.29277054252116   13.95078958221483
H        11.85987607058139    6.93659765055702   14.78064330593471
H        13.40859777326596    6.73314594660546   13.96951046756608
C        12.75260740030631    9.11489999576653   16.30773061977153
H        13.01451731606264    9.45711746818125   17.30220007247074
H        11.68670266516271    8.88213581851031   16.31271484909448
H        12.91493942135514    9.93460592421189   15.60906612458601
C        14.11784874587251    4.97357455278582   16.93305645712163
C        15.61423967512574    4.97772570952487   17.24911239136453
H        16.04308871047502    4.02564310799895   16.93817347250214
H        15.81352086957103    5.10363489365112   18.30971733938462
H        16.12701360406355    5.77129141067071   16.70962382518116
C        13.93643236131359    4.60039894061089   15.46085829463695
H        14.55673832812427    5.21451635974227   14.81505464772440
H        12.89534798490362    4.68443323540661   15.16298142746026
H        14.24253410603978    3.56455756907132   15.31706410055832
C        13.38310532240933    3.91176445954051   17.75948506442965
H        12.30494059297174    4.02052741177219   17.63940149266994
H        13.61551734619495    3.95774422897629   18.81882845797052
H        13.65985996771972    2.91788399575042   17.41050190498099
C         8.33014544334893    7.29937064191776   20.07518459622763
C         8.84495591546260    6.42139305635288   21.03055325303419
H         9.37074642554289    5.54097135704466   20.70088438381190
C         8.68642257375068    6.64395146007941   22.38421116165035
H         9.09833690270774    5.94325487224534   23.09556259676479
C         8.00715165328342    7.76711618470859   22.82447092369408
H         7.88945566402339    7.95647124769012   23.88051707228294
C         7.47527917805742    8.63937746414752   21.89312784401708
H         6.93133968553637    9.51318814956381   22.22113760171793
C         7.62828766498682    8.40837342951815   20.53559357093317
H         7.18072383921026    9.11442163783405   19.85777304454728
C         8.09692894440995    8.25776179853382   17.23080452423007
C         8.88713346510564    9.48880710327203   17.68814579648818
H         8.71420051266588   10.31663722710990   17.00170066176885
H         9.95128605240784    9.25699920062738   17.67584113456677
H         8.63344091598020    9.82368414215681   18.68770788465685
C         8.53422749158837    7.99057089724629   15.78737283496358
H         7.99903866156328    7.16427355657740   15.33276340753032
H         9.59858667377369    7.76295499496616   15.75072004462181
H         8.35546637451495    8.88023158705233   15.18457887468528
C         6.59045782621420    8.51950467096577   17.24998952371474
H         6.39422976549122    9.48370517584725   16.78111067169859
H         6.17535946674833    8.54305533349238   18.25266837938295
H         6.05341432565205    7.76487080428607   16.68067332278624
C         7.61029918801374    5.28743028761053   18.14424396110402
C         8.43264244556875    4.09721205218858   18.65611646598018
H         8.40735081942715    4.02365596534988   19.73966697481158
H         9.47150868648039    4.17458772102878   18.33018726513014
H         8.02858747466571    3.16883536287710   18.25587906199641
C         7.25596946111151    5.02142299718886   16.68095867166510
H         6.73839880561127    4.06502937039284   16.60948214006981
H         8.15230274333504    4.96255150964219   16.06993769821410
H         6.59050828082242    5.78094828242616   16.28096454008729
C         6.31737637111585    5.41031390798408   18.95210527400926
H         5.71034801332544    6.24416678821251   18.60940901492769
H         6.51397706730662    5.54003634773942   20.01393229254685
H         5.73599868183068    4.49748551192364   18.82704821620443
F        11.62932832220638    5.20335531401703   20.37527943063485
F        12.24419884765594    5.82239839153615   22.93977536693894
F        12.52295510109412    8.45194698308435   23.67925991551623
F        12.18624075993821   10.40960326765196   21.79428604472982
F        11.56100979610156    9.78606987652756   19.27460566404301

