115
CSD_code = QATFIC | q = 0 | S = 0 | Stoichiometry = C52H54Cl2N4P2Pd | MND = 4
Pd        0.00456638614297    0.00204813642692    0.00078042577570
Cl       -0.88782008150751    0.87207728177353    1.93985565419761
P         0.65340162199186   -1.83499336525054    1.18769639711159
N        -0.94256234948026   -3.83980486036114    0.03733481496547
N        -1.23210450666790   -5.26695849010562   -2.48483843642681
C        -0.22171839236902   -2.73902081042367    2.50109679581503
C        -1.43477180194227   -2.29008432590643    3.00603976431348
H        -1.86269329089840   -1.37068125953327    2.63283480917698
C        -2.07672260353611   -3.00456991279205    4.00347533921505
H        -3.01974701289445   -2.65065292502464    4.39427447610468
C        -1.51224765646960   -4.16610083924790    4.50113448544937
H        -2.01420113836156   -4.72294920199830    5.27898808606597
C        -0.29839316164721   -4.61429507727408    4.00206963777797
H         0.14528832471728   -5.51903914227264    4.39245058730732
C         0.34700673040928   -3.90605258125405    3.00717815048136
H         1.29113785534950   -4.25671834986527    2.61252871307493
C         2.10378377289042   -1.12220402104389    2.03184303872965
C         2.38974114349638   -1.29147715284072    3.38064890012028
H         1.76055463176273   -1.92192798509273    3.99232574675367
C         3.47470665005707   -0.63965807526422    3.94312158419217
H         3.69094086955442   -0.77125516268701    4.99342500248100
C         4.27724412371537    0.18086243299178    3.16920598631769
H         5.12120209630636    0.68687420459567    3.61511590451163
C         3.99418461413806    0.35846441173272    1.82333354458446
H         4.61890499974344    1.00004844550317    1.21871268626739
C         2.90777341653535   -0.28169848483281    1.25746063887910
H         2.68121265275198   -0.15119788639537    0.19756542049102
C         1.33153571072121   -3.19647457761721    0.20020044852509
C         0.38396773451423   -4.02134463926150   -0.39400489763102
C         0.82637938144572   -5.11007292843895   -1.19882716049420
C        -0.01550272622254   -5.85100652361254   -2.08551657894565
C         0.42504706491404   -7.06323689697983   -2.57050166191883
H        -0.20862489728735   -7.66357082697439   -3.20391595569120
C         1.72760832140343   -7.51102914433137   -2.32365540557102
H         2.03748334652768   -8.46756852960275   -2.71921767517058
C         2.62083793812121   -6.70282978805194   -1.68103994265311
H         3.65757443081317   -6.98881264751175   -1.58296896470563
C         2.19948411040592   -5.47696435598899   -1.12591615101755
C         3.12053427293882   -4.61009250223327   -0.50380881170893
H         4.16580011526574   -4.88305540681262   -0.49816322335837
C         2.70474512692770   -3.44592377614916    0.07538246266789
H         3.41660978194302   -2.76563212367657    0.52089878720367
C        -1.80558250242255   -2.79452698513711   -0.46918844613556
H        -1.22584644264306   -2.03231617617739   -0.99948330490991
H        -2.34344306964119   -2.33519564819762    0.37107307624461
H        -2.54739249034557   -3.20217698245323   -1.16557268430674
C        -1.67476396983229   -5.01961560545305    0.43419519275373
H        -0.98056299181133   -5.78962326438543    0.76435175469054
H        -2.30086863263366   -5.42260011496553   -0.36839791105560
H        -2.31858359447761   -4.75151746819731    1.27681626505321
C        -1.03735009486104   -4.07396738372008   -3.29549351927071
H        -1.98608482975229   -3.54771404120066   -3.40046407334770
H        -0.67402250519856   -4.33023384212706   -4.30119512626801
H        -0.31394315187758   -3.40935654547141   -2.83166049096066
C        -2.21774706713088   -6.14518002354169   -3.07580153172398
H        -2.34531911065078   -7.02897078542386   -2.45217692594679
H        -1.96275380340459   -6.45969869916067   -4.09780893236691
H        -3.16793017135764   -5.60950508414361   -3.11889664836477
Cl        0.88857482728439   -0.87020603244006   -1.94157543846581
P        -0.65326333416232    1.83504877811518   -1.18779793354737
N         0.94241177056427    3.84018293687188   -0.03746312822135
N         1.23171668204804    5.26659523575088    2.48528897163717
C         0.22185048996384    2.73916416692010   -2.50127754863956
C         1.43495106719000    2.29031203207406   -3.00628805908692
H         1.86285634698638    1.37084033829275   -2.63318672449023
C         2.07702482125851    3.00503697487200   -4.00352223821899
H         3.02011650464119    2.65126147576294   -4.39430318371584
C         1.51260456149780    4.16666596232153   -4.50101724418584
H         2.01458035305917    4.72362053912829   -5.27879574252298
C         0.29868185124098    4.61472879161274   -4.00200560186681
H        -0.14499962144747    5.51949374398939   -4.39235546419026
C        -0.34681763322142    3.90629211455247   -3.00728530177072
H        -1.29097579830828    4.25690838296323   -2.61267596996766
C        -2.10349733104768    1.12237473082264   -2.03239589493607
C        -2.38913668241181    1.29148632394271   -3.38131301208301
H        -1.75980539858823    1.92185228272016   -3.99293831609667
C        -3.47395983191184    0.63956878062130   -3.94397886356369
H        -3.68999326033166    0.77107141404561   -4.99433716268981
C        -4.27661676414535   -0.18093323932985   -3.17017513550746
H        -5.12056361153573   -0.68687627549711   -3.61617909881966
C        -3.99389612839423   -0.35834424721467   -1.82420602741453
H        -4.61877530096678   -0.99981023757105   -1.21963050812019
C        -2.90769404945646    0.28195575171075   -1.25811997912030
H        -2.68151004204594    0.15163164513657   -0.19809710654285
C        -1.33158058471452    3.19661872349259   -0.20060922094313
C        -0.38416390901382    4.02141940808805    0.39388092353327
C        -0.82674996615142    5.10973744711785    1.19914891048437
C         0.01497050348687    5.85049579025133    2.08614124755911
C        -0.42585383225861    7.06243902685378    2.57159369500110
H         0.20766167070348    7.66263467669853    3.20529497568395
C        -1.72848306925005    7.51009098988983    2.32485264274635
H        -2.03857708960414    8.46639008137309    2.72082014913299
C        -2.62152125199774    6.70198007422314    1.68186762584387
H        -3.65831364927417    6.98777857177330    1.58386935522904
C        -2.19991905626535    5.47640365202212    1.12632450589673
C        -3.12080909672701    4.60962249176335    0.50385587732189
H        -4.16611213830750    4.88241402498975    0.49822717369902
C        -2.70481454894446    3.44575397892714   -0.07573853327825
H        -3.41654034647448    2.76545231216690   -0.52145977786397
C         1.80534465729506    2.79463412306071    0.46868619739430
H         1.22538111738816    2.03156022062247    0.99776307907320
H         2.34381896992548    2.33622646305511   -0.37165150061562
H         2.54679216088745    3.20197842043611    1.16568025815741
C         1.67448252730773    5.02028588047882   -0.43375744724507
H         0.98017209885400    5.79029137948150   -0.76370331110880
H         2.30042756492743    5.42311416102881    0.36903674032886
H         2.31843747036401    4.75266666330775   -1.27643268543719
C         1.03720073219364    4.07335610703889    3.29563921157794
H         1.98608821780499    3.54738479238568    3.40065683184440
H         0.67361005717801    4.32926673623020    4.30133493441116
H         0.31408114369464    3.40862614137118    2.83153437344316
C         2.21713815427384    6.14488053478826    3.07654219165972
H         2.34442270867324    7.02895275997548    2.45325711152597
H         1.96210727734042    6.45892995823772    4.09868560555362
H         3.16748384067916    5.60947035225398    3.11939045415673

