57
CSD_code = QATLUU | q = 0 | S = 0 | Stoichiometry = C29H22CuIN3P | MND = 4
I         4.60899783587610    7.11058496005315    0.09480341259559
Cu        4.01630120198772    6.04074686321661    2.25884408222144
P         4.93675624642398    6.20731912614434    4.32614857009402
N         3.34907956498152    4.06434205062442    2.11390284829724
N         2.06363449079231    6.24388060435226    2.74135270821592
N         3.01216997424352    9.09312978204484    4.24414429870874
C         4.05391799616197    2.95137941237283    2.04095739887001
H         5.12233463171102    3.05521238921949    2.17930357437284
C         3.47122403000274    1.71872988683247    1.79556396720387
H         4.07987357581598    0.83171060386580    1.72812835651010
C         2.09356968394448    1.66165562740149    1.63458325835506
H         1.60253709507228    0.71884025461207    1.44476997498590
C         1.35373369386572    2.82756125256411    1.72288710203101
H         0.28004844514328    2.80848505518092    1.62381946648602
C         2.02119723125469    4.02762663266128    1.95723081571005
C         1.35759892134139    5.33015006978848    2.06299293352982
C         0.13477884984630    5.63452144167146    1.47640727318660
H        -0.40473095770423    4.88728893410653    0.91671348695528
C        -0.36325056036380    6.92589029934047    1.58867904853752
H        -1.30107763529143    7.19050184941270    1.12547099352727
C         0.36138028972670    7.87312220601379    2.29564122948942
H         0.01240196033995    8.88755544122469    2.40698645707739
C         1.56811425875192    7.48149185851003    2.86763366840873
C         2.36132346372713    8.38055890015739    3.62383656739695
C         3.80322909556059    6.23404310151230    5.74389183336780
C         2.83121136291809    5.23452222827456    5.77020286329972
H         2.84060244404092    4.46648412553502    5.00472502989690
C         1.86741105864647    5.22658409581536    6.75910736913396
H         1.11911759187525    4.44667608779843    6.78055567765743
C         1.85700567310133    6.22766350327171    7.71845088696700
H         1.10070827380810    6.22605313264898    8.48964279744699
C         2.80764017754652    7.23432745079564    7.68147288315243
H         2.78968656904800    8.01986567923595    8.42251047779600
C         3.77790780198682    7.24619982826743    6.69499361988173
H         4.50591268912119    8.04292294571662    6.65552167207428
C         6.12087133177102    7.54729797404822    4.65209135400683
C         6.98715982281967    7.50501180362014    5.74209604050137
H         6.95537972321254    6.66462771855861    6.42338413957973
C         7.88188440899309    8.53789697303242    5.94415782124845
H         8.55283588827018    8.50918755137134    6.79079922318159
C         7.92181841890737    9.60780925642664    5.06211314914753
H         8.62523512143126   10.41108699053253    5.22547072843523
C         7.06798253678635    9.64601749211847    3.97299487439079
H         7.10338459791906   10.47448867704159    3.28202693247013
C         6.16801930463314    8.61589243600245    3.76464838193801
H         5.50063682795031    8.63601191304713    2.91460583747485
C         5.99376474752011    4.75797028054012    4.64574086702264
C         6.98077949983464    4.52482752200457    3.68846717924874
H         7.08222088795402    5.21396378002630    2.85798757063394
C         7.81697629478862    3.43157360429997    3.80052364463937
H         8.58243958385414    3.25834140023774    3.05830325968150
C         7.66611654537288    2.55471472471239    4.86452557720384
H         8.31558116231505    1.69638130556848    4.95296319430000
C         6.68259576585669    2.77892370323852    5.81317584840140
H         6.56715893638950    2.09639530824846    6.64299802300975
C         5.84449256536749    3.87602389957120    5.70833109124564
H         5.08001899946581    4.04672800535167    6.45391865679149

