93
CSD_code = QATPAE | q = -1 | S = 0 | Stoichiometry = C40H32AuN4S16(1-) | MND = 4
Au       11.16183719697594    5.44214505473482    3.53486946112063
S        13.46736645063760    5.24783014203612    3.28897090601301
S        11.39137827638139    5.78554989683917    5.82580221967787
S        15.68157082758722    5.37977561781316    5.30128641567176
S        13.82494323633399    5.85149404513080    7.57231315983075
S        18.20753896954502    5.62473238638107    7.31236125164652
S        16.34289959754750    6.05514659947909    9.58930266846385
S        20.66153322735758    6.21457321894673    8.99226150080893
S        18.61497447453926    6.58894039703444   11.53090283207242
S        10.93219547317018    5.04914724447472    1.25387426280345
S         8.86124619356330    5.69136089415731    3.76671482753401
S         8.49903009879560    4.91455816055280   -0.49085687530794
S         6.64559389374859    5.49624224132619    1.75851674757211
S         5.96667206393260    4.94522341558496   -2.55268859516686
S         4.16103099992209    5.54061033160192   -0.26294516983188
S         3.75482792215388    5.38509193715453   -4.58320730427926
S         1.79551061257251    6.09243355251436   -2.11494812501178
N        22.98588606846662    2.90395519675703    8.11526103050068
N        18.99823692101841   10.46482202600813   12.42070324464011
N         5.25129025408663   10.07669557950384   -4.37350741904592
N         0.79266924642800    9.15863985107837   -2.31543103868529
C        13.95981466011016    5.45875950792544    4.94582851139568
C        13.12349704946109    5.67491832030128    5.96788235143056
C        15.48904294439197    5.68930877555877    7.02265036244659
C        16.53873644345932    5.78893400101376    7.85639992626492
C        18.91221520651696    6.05345570214896    8.87273111076676
C        18.06940227162086    6.25359772899134    9.89935782650650
C         9.20052204053658    5.16495180655588    1.10426511178784
C         8.36646636414881    5.42246790260062    2.11821234756218
C         6.84608982096330    5.21933984659510    0.03033764148121
C         5.80703383601846    5.23768860865918   -0.82261079022466
C         4.29375683928951    5.38250477926786   -2.91402272409192
C         3.47734102141297    5.66338847238185   -1.88411560548328
C        21.06605280309321    4.67670189238560    9.89471560160498
H        22.11926496840810    4.77724150884507   10.15245099870929
H        20.46269148734621    4.66994249193365   10.80168248703700
C        20.83479626772359    3.42819339075232    9.05015344651989
H        19.80041643738494    3.40198051205583    8.70299786686660
H        21.02447596912380    2.55693522026257    9.67986492216861
C        21.77778451014396    3.40192377030424    7.88106837327023
C        21.41204813312685    3.91483108839377    6.64061478096052
H        20.42177391038546    4.31292884526234    6.48288550248806
C        22.34340623434951    3.90670401671628    5.61695550763799
H        22.08859482217997    4.30109521282632    4.64392955762986
C        23.60356507323341    3.38459345682844    5.86311457730988
H        24.35914872045720    3.35708635560956    5.09284113982907
C        23.86789923765284    2.89539172926333    7.13236733927346
H        24.83435428488618    2.47384772447107    7.38082103841372
C        17.36953903047275    7.81111092321733   12.06347139827806
H        16.39172157906892    7.33406528738434   12.00379513774661
H        17.62161994740296    8.01720525020743   13.10310485769494
C        17.42199146312720    9.08979821746384   11.23436260208895
H        17.18874442713180    8.86512627718309   10.19228061440619
H        16.66971203997345    9.77514102009641   11.62870482227975
C        18.77968155221417    9.72406300589537   11.34130199643719
C        20.19430113754010   10.99833451254328   12.58957306956936
H        20.31240711993985   11.59628344084498   13.48499559090481
C        21.24407370541140   10.81856448185780   11.70279716570890
H        22.20697389745397   11.26874331678738   11.89009761900502
C        21.01832665795498   10.04516872525456   10.57518265816785
H        21.80400080932696    9.86856673437783    9.85531864927391
C        19.76372411138104    9.49293400084152   10.38555948383746
H        19.55802807904460    8.88621984511400    9.51769176533324
C         4.45472274092302    6.99046150273468   -5.11714223911182
H         5.53372641916078    6.95872363498978   -4.97088384944949
H         4.22962579156333    7.04994384609828   -6.18139942502950
C         3.81939812709926    8.14185358445368   -4.34598834056893
H         2.73318714324670    8.03447941942727   -4.37300963266544
H         4.15439708456343    8.10502465763135   -3.30916894678276
C         4.22311337323281    9.45876681708474   -4.93657296700201
C         3.55116855578345    9.98925268320019   -6.03575075234040
H         2.71495009098082    9.45862846938233   -6.46548056294993
C         3.96734355306158   11.20393338421599   -6.54914878335189
H         3.46263946122564   11.64450622798791   -7.39781754666514
C         5.04206941454629   11.84824171909195   -5.95436630589075
H         5.39779287398585   12.79850918350084   -6.32197286552969
C         5.64742145209937   11.23514719422379   -4.86925714497977
H         6.49008909447200   11.69130583020905   -4.36530938603020
C         1.45747788535117    7.08267301005797   -0.61867483336362
H         0.39356907598377    7.30010134139751   -0.69212194520226
H         1.65762570188108    6.45370380208094    0.24782129721607
C         2.25954076964515    8.37175767901968   -0.55637891455255
H         2.04551748128291    8.85637503553310    0.40214241579768
H         3.32984723215039    8.15449043666788   -0.57056687309190
C         1.93180143909243    9.33610063796962   -1.66313162551130
C         2.80194061493063   10.38326686765069   -1.96471173323868
H         3.72562887798225   10.49860997049506   -1.41905793194041
C         2.46323413918268   11.26112878788567   -2.97681501238928
H         3.11656178768219   12.08379266675231   -3.23056055089822
C         1.27600401997553   11.06194626629657   -3.66626709173477
H         0.97974417454148   11.71864922199275   -4.46978302032373
C         0.48089376096220    9.99231619716570   -3.29183746886572
H        -0.45720105616671    9.78650442872279   -3.79216060484144

