36
CSD_code = QATQAD | q = 0 | S = 0 | Stoichiometry = C19H15ORh | MND = 7
Rh        0.18765189905118    2.65351005352285    7.81418513759841
O        -2.58798881878303    2.95949783269746    8.87576528917396
C        -0.55933626725021    1.83771178217130    6.22667143562357
C         0.25017092615557    0.83113998081283    5.55317689261391
C         0.83608717168459   -0.21904341023147    6.27325810856288
H         0.63229544288400   -0.29512150002218    7.33571692955562
C         1.61224128915160   -1.16501584867471    5.63516962865787
H         2.04713614245173   -1.97548297211916    6.20219519841911
C         1.83788339164626   -1.07777890701347    4.26978042398311
H         2.45525157689619   -1.81215698059415    3.77410534080758
C         1.26211118508982   -0.04757491519385    3.54221979958659
H         1.43255773585366    0.02122754822656    2.47756957020667
C         0.46407250101123    0.88813943144370    4.16935287053538
H         0.02162834283267    1.69465002674040    3.60214569885943
C        -1.81833210406825    2.15695960951268    5.58326850615330
C        -2.56379928100895    1.16661370322025    4.92633369867041
H        -2.19608942407103    0.15053338497898    4.91553030064064
C        -3.77432080130162    1.46938199209701    4.33690422815013
H        -4.34343320210590    0.69010742465248    3.85118910822976
C        -4.25999881680910    2.76754124085242    4.36209843490420
H        -5.20430767232446    3.00223211676777    3.89394390767466
C        -3.52728339084620    3.76389748895695    4.99028014044150
H        -3.89873612312638    4.77804147950204    5.00449374204442
C        -2.32808970732725    3.46388920319595    5.60131214736044
H        -1.74268204690140    4.24132388920030    6.07875399400192
C        -1.51768678163114    2.84674101023180    8.46986540992950
C         1.74911254722294    2.69223268623436    9.53148510214099
H         1.64763440333476    2.41560653495184   10.57039543900662
C         1.56358378277504    4.00231361936901    9.01055114620668
H         1.30203511612239    4.87425800493540    9.59231636269270
C         1.98084868708750    4.00200356402886    7.65918543881916
H         2.10488482388114    4.87017525417236    7.02827666850519
C         2.38458910593629    2.67169336247902    7.33823663473100
H         2.88543830907372    2.37811357555726    6.42641849360392
C         2.30857388260529    1.88717943436633    8.51242311327113
H         2.68379617481004    0.88295929897229    8.62872565863617

