105
CSD_code = QATRAE | q = 0 | S = 0 | Stoichiometry = C42H56FeN6 | MND = 6
Fe        0.00004979583442   -0.00015919190446   -0.00003938922974
N        -0.42214756090674   -0.09472005633958    2.01543202259104
N        -0.34362862171616    2.03281558167274    0.00673538182767
N         2.65665267438421    0.92982070813005    0.98265530040423
C        -0.34497810730725   -1.15659927808284    2.81041665937355
C        -0.59908887200809   -0.79727975089178    4.15739431281106
H        -0.59270092365708   -1.45200512652491    5.00785345559991
C        -0.85967296505559    0.54169946074822    4.16598769141227
H        -1.08206596339570    1.13690271689483    5.02949186252653
C        -0.74399879193746    0.98766787398702    2.82056822168429
C        -0.90842202557797    2.30760955802057    2.40793315897032
C        -0.67247481858473    2.78807416514174    1.12230332606449
C        -0.71441560928132    4.16047026047937    0.75270973363989
H        -0.92397195880788    4.99727112390357    1.38918352240354
C        -0.40368229721949    4.21712249128717   -0.57441880864937
H        -0.34004199614655    5.10243402238933   -1.17792989666425
C        -0.19199203360840    2.88321140245983   -1.00307734849026
C        -0.08554362319429   -2.58650414497306    2.44527681946427
C        -1.33270388638000    3.31167103450651    3.45501975700244
H        -1.92282097224119    4.10093070531418    2.99154212211770
H        -1.97151787983774    2.82711945987783    4.19197209962028
C        -0.12401157370834    3.93036626177142    4.16018640630223
H         0.47363710925260    3.15672236779437    4.63735388809474
H        -0.45077821840908    4.63507897292614    4.92224167632695
H         0.50271299066551    4.45898674226021    3.44551928422812
C        -1.32704538868661   -3.40511418679611    2.88591484571630
H        -1.48418344673302   -3.27256257798609    3.95702435318700
H        -1.14390867959624   -4.46571804817322    2.70921112490472
C        -2.57673066948591   -2.97470288505656    2.13225893331560
H        -2.41719541428090   -3.09605405992157    1.06374129625204
H        -3.43277456464824   -3.57553172654708    2.43544840817922
H        -2.79501974296460   -1.92659033206628    2.32536709659610
C         1.14406049609624   -3.07855111479757    3.25362436691218
H         1.29495439255955   -4.14266189943103    3.06649599196924
H         0.94877091866784   -2.95465747291636    4.31971573922698
C         2.40142247755219   -2.30935173079295    2.87683789644834
H         2.24317235456869   -1.24773883540937    3.04348512336268
H         3.24745931196054   -2.64091344759198    3.47616156842750
H         2.63694103833746   -2.45448861512698    1.82491789003818
C         1.68959039733785    0.46607473993608    0.51975355382287
C         3.72236899123041    1.63007762782133    1.58751638117381
C         4.89075104134506    1.69462912241374    0.59925668068712
H         5.22062226020274    0.69066837987892    0.34141807848407
H         5.72300976100108    2.23290954923866    1.04597476423740
H         4.59148795830451    2.20389860188812   -0.31287260096122
C         4.14586830972308    0.88724084462689    2.85858679041795
H         3.31479159316732    0.83015722917325    3.55806863614686
H         4.96715579799519    1.41586870301959    3.33634453937804
H         4.47061897320425   -0.12247311667771    2.61952766432844
C         3.22073519899388    3.03384533773281    1.94450329429020
H         2.91580176114515    3.57347559181545    1.05089838549099
H         4.00809562754319    3.59544065890002    2.44149538211495
H         2.36136275256719    2.96266941974423    2.60734598092884
N         0.42251132542054    0.09469084057474   -2.01537561220886
C         0.34541541797455    1.15662992656975   -2.81029922713754
C         0.59946386709143    0.79732279285564   -4.15730254206562
H         0.59307553899814    1.45208031453292   -5.00773972167536
C         0.86007446383730   -0.54164886217610   -4.16596060126214
H         1.08240754165120   -1.13679823772589   -5.02952652534914
C         0.74434404702269   -0.98764903917749   -2.82056622711521
C         0.90858950155888   -2.30759754283526   -2.40792440571188
C         0.67245261311731   -2.78805599599179   -1.12233115355392
N         0.34379325073775   -2.03275348176384   -0.00672915746609
C        -1.68939515407894   -0.46649837241394   -0.51999877598218
N        -2.65659096261611   -0.93007371102084   -0.98269167754546
C        -3.72242091441502   -1.63027686510298   -1.58742030202077
C        -4.89047283465741   -1.69461438462831   -0.59875707162486
H        -5.22022013841252   -0.69061831703083   -0.34087413218719
H        -5.72287538752883   -2.23291066755143   -1.04516378523604
H        -4.59090295947850   -2.20383996366222    0.31328802997568
C        -4.14611410362998   -0.88730284969002   -2.85834323190347
H        -3.31507721070187   -0.83006011081919   -3.55787801228490
H        -4.96737559726469   -1.41593532605603   -3.33613455835030
H        -4.47094178168666    0.12235216945906   -2.61910825878868
C        -3.22121798067090   -3.03413318391390   -1.94469585198541
H        -2.91616972514138   -3.57397283861378   -1.05124136497758
H        -4.00900051698577   -3.59539368301775   -2.44141871086639
H        -2.36210611862810   -2.96324550476470   -2.60792950590314
C         0.19193535595225   -2.88317717416014    1.00304842622849
C         0.40306842725909   -4.21713579529756    0.57425594789056
C         0.71386419873872   -4.16049685599671   -0.75285879111928
H         0.92306584152775   -4.99728645164899   -1.38947226100216
H         0.33904048287461   -5.10245594672916    1.17771187290924
C         1.33263539600386   -3.31169139189027   -3.45505218029520
H         1.92251990224518   -4.10112961628382   -2.99156497695237
H         1.97160267012537   -2.82717499876417   -4.19190574000519
C         0.12388473587834   -3.93005318549170   -4.16040352123085
H        -0.47351574848171   -3.15618945540797   -4.63752493782379
H         0.45050140088628   -4.63478130875649   -4.92250539487545
H        -0.50300641553756   -4.45857865439315   -3.44581042776257
C         0.08577673997035    2.58651865924485   -2.44522985076460
C         1.32719111183467    3.40533115261842   -2.88571599012961
H         1.48444704658130    3.27289157555088   -3.95682547514598
H         1.14379756771402    4.46587797584163   -2.70893594452787
C         2.57685683001844    2.97512039487135   -2.13192819594908
H         2.41726007829682    3.09654148937868   -1.06342641561516
H         3.43280664091584    3.57608134483832   -2.43515688000643
H         2.79530369685027    1.92701748491387   -2.32494291630119
C        -1.14378051692264    3.07839633223036   -3.25379302706588
H        -1.29492570853054    4.14246127803614   -3.06663105184624
H        -0.94832349136735    2.95462308581302   -4.31986981660694
C        -2.40113860783996    2.30903166780949   -2.87735587098155
H        -2.24270252881569    1.24745751680653   -3.04406128655282
H        -3.24713184465564    2.64049636364472   -3.47678816953157
H        -2.63685682129318    2.45405428943376   -1.82546816622239

