64
CSD_code = QATSAH | q = 0 | S = 0 | Stoichiometry = C34H21ClCuN6P | MND = 4
Cu        1.12038615183964    6.74265678837441   20.13252345088351
P         0.42745929994338    6.18291311707942   22.17225056974866
Cl        2.03866172834041    5.00451689364527   19.07637940778879
N         2.80912552417897    8.03626363449063   20.08212210407396
N         0.64826933751409    7.81212709031288   18.52932421429924
N         5.36106081617412    9.75563842157281   16.41000584525518
N         3.11090337533772    9.52189697999262   14.78825084452801
N         7.58104879313754   11.01320206362255   14.14142326237073
N         4.39526293666606   10.70173440249996   11.85113451474132
C         3.87060430301697    8.04938706156034   20.85872527336345
H         3.71893182443679    7.70906800828330   21.87515371273747
C         5.12752575705794    8.46712148544514   20.42124321832211
H         5.96780754758608    8.44463145985120   21.09648271142661
C         5.26910476737430    8.90601284011753   19.12211003220758
H         6.21571109494646    9.24562136091276   18.73087543375174
C         4.15034617836200    8.89617873344921   18.28124288718665
C         2.92768988859285    8.43543054402538   18.80656135206491
C         1.76573236326149    8.31352958706014   17.96872795183930
C         1.82984707200287    8.65118254714329   16.60497571272215
C         0.69808033965569    8.44087815634394   15.81202073938268
H         0.73480016578348    8.69127232520692   14.76353311110263
C        -0.43145547612450    7.90727935737900   16.40239773759422
H        -1.32317295232692    7.72233934655543   15.82513573533572
C        -0.41208319407504    7.61565048266275   17.76088565929060
H        -1.28526648576179    7.21325818497421   18.25612061340482
C         4.21045336289064    9.29236236571667   16.90090985129200
C         3.06374960067398    9.17088543762940   16.07127104799775
C         6.61613257892259   10.60332482018181   14.60207763638967
C         5.40106560992879   10.10177345945459   15.13579861404923
C         4.25337381128361    9.98613274481222   14.30766318954763
C         4.31535309148226   10.37284274822812   12.94543341765654
C        -0.44396576048842    4.59285761221668   22.29384547673891
C        -0.64299911842256    3.95908252539433   23.51800962390663
H        -0.28121003304145    4.41933145557530   24.42780570751865
C        -1.29613364633450    2.74196235239456   23.55936445740563
H        -1.45309187473079    2.24780105147249   24.50720847175476
C        -1.74252823030958    2.15080051848020   22.38677131861576
H        -2.24760402976757    1.19685835687487   22.42556012829209
C        -1.53188078135671    2.77312167592210   21.16764936828003
H        -1.86624583694597    2.30340849845791   20.25473657750353
C        -0.88237240802374    3.99393821626049   21.11854074446452
H        -0.68331104200426    4.48180852472877   20.17314609343335
C        -0.57910575900073    7.34733743596324   23.14011846421162
C        -1.83343340516263    7.05487396332818   23.66062514538729
H        -2.25408681458611    6.06716826906962   23.53659944837099
C        -2.54005236902790    8.03240837313342   24.34061571748781
H        -3.51220858130044    7.80157641389321   24.75107078473789
C        -2.00779852962875    9.30128460955769   24.49548901524847
H        -2.56295181906135   10.05818223059720   25.02931900838884
C        -0.76607910388687    9.60396426301980   23.95653123737554
H        -0.35607183053864   10.59726908821137   24.06673554507363
C        -0.05932045211652    8.63459976422845   23.27300916712346
H         0.90510176143221    8.85659829650969   22.83193485834397
C         1.85889493017209    5.86396464694658   23.25046713817827
C         1.97714302160666    6.31433200969871   24.56000599438860
H         1.18935249809180    6.90552851771602   25.00633389519970
C         3.11311844795364    6.00595745711696   25.28904355214158
H         3.20577625172867    6.35485472313138   26.30745882906184
C         4.12638704882515    5.25235428901635   24.71974177876783
H         5.00911342351096    5.01567968050824   25.29544457881865
C         4.00970921402491    4.80383812525550   23.41260246778283
H         4.80067393064097    4.21914971282351   22.96695295365777
C         2.88120214261052    5.10976296228441   22.67606605239314
H         2.78146954311802    4.78013193151476   21.64903654753164

