148
CSD_code = QATXUE | q = 0 | S = 0 | Stoichiometry = C72H60N3P6Se6V | MND = 6
Se        6.79032485619994    3.81564357988908    6.69685628023743
Se        9.53812326122896    2.73125886636592    4.42733396741701
Se        8.69100044695832    6.13804915784423    5.06470398538496
Se       11.62267195811584    4.69934397159441    6.67388559884311
Se        8.83464792905026    5.75580323818809    8.56087234209385
Se        9.77810543390146    1.97939086246658    7.80327039182585
V         9.23173224399127    4.03217080255934    6.49111607933815
P         6.01015585291328    2.89750701128972    4.90314394321705
P         8.12326973497422    1.09368720048898    4.35381221010401
P        10.45856318145990    6.51362159899067    3.89357578366802
P        12.33789256521358    4.61452008318897    4.64913796036617
P         9.85506280992557    4.86043455930089   10.24537369327578
P         8.90648644238935    2.20229768394002    9.78383353891505
N         6.54496937412187    1.40721366214282    4.55730814312168
N        11.36775197667917    5.22176693312720    3.49375871643427
N         9.43355782993923    3.37854755174676   10.75344585261334
C         6.22847843592921    4.05715164999544    3.51576077178684
C         5.71427004089877    5.34125489283077    3.65809124399092
H         5.17625877887622    5.60190125515554    4.56241095952583
C         5.92336216677955    6.27233765522412    2.65855521535267
H         5.53318878775071    7.27369134235282    2.76487066035013
C         6.65707498156371    5.92688787706042    1.53432721903409
H         6.83860096319193    6.66272460889308    0.76459998857952
C         7.17243796821514    4.64841642038166    1.39923958167229
H         7.75340788527267    4.38656747954123    0.52691174546114
C         6.95255477719929    3.70562779504975    2.38722094210634
H         7.34507420248710    2.69801368244636    2.28988164836697
C         4.22512313993880    2.68502906677982    5.10026580801055
C         3.57416805523068    1.78024352258846    4.27238652852842
H         4.14896187134614    1.21847982278294    3.55038861647497
C         2.20820656640838    1.60620490020435    4.39363574581188
H         1.69537975643844    0.90083731326304    3.75577570542879
C         1.49599354706846    2.33736015774711    5.33201960812123
H         0.42855100399815    2.19866608818434    5.42448361006892
C         2.14836032821774    3.24285223113449    6.15262458330745
H         1.59075629669526    3.81170021679695    6.88250947591707
C         3.51563463210390    3.41909395810774    6.03781149683623
H         4.04546532672848    4.11059011530492    6.68248559564668
C         8.31151305625326    0.26873625512489    2.74202138746903
C         7.37917588668634   -0.71028105301548    2.42532115416918
H         6.58574094605148   -0.92625431350504    3.12758510403703
C         7.47728328766625   -1.38096996711423    1.22071905610754
H         6.75518395120675   -2.14299363665284    0.96566920147265
C         8.50446974557943   -1.07578009201255    0.34047889799214
H         8.57980240592879   -1.60183567739730   -0.60006826088951
C         9.43230861967099   -0.09815560689687    0.66082336383874
H        10.22825656302192    0.13885673803515   -0.03018881968823
C         9.33810713465626    0.57741405942678    1.86454911648828
H        10.04819254802269    1.35173991308347    2.13413429047720
C         8.58677417649341   -0.22672725109730    5.51154179004544
C         7.64025209455459   -0.81287383874923    6.33732785410810
H         6.61541806055720   -0.46956185920004    6.28921317105348
C         8.03111050230765   -1.81327692292103    7.21069971152588
H         7.30490944663507   -2.27297170113849    7.86672009673716
C         9.35422678975160   -2.22063637007725    7.25108652389421
H         9.65385505651488   -2.99720147651664    7.94000540608074
C        10.29658061054327   -1.63305072102622    6.41962167265470
H        11.32808476288686   -1.95203954975704    6.45908471908550
C         9.91563061123183   -0.63284629433359    5.54593833323605
H        10.63580591324001   -0.14493200831827    4.89729944479221
C         9.92680303628366    7.21490520206850    2.32231049259980
C         9.23238026484169    8.41679460895505    2.34810263733148
H         9.04216221374775    8.89234672371860    3.30230240835708
C         8.79228480442281    8.97493134112102    1.16331569812633
H         8.25502228510992    9.91226299473136    1.17247894259761
C         9.03925422416416    8.32755380341031   -0.03852635605137
H         8.69496088734811    8.76533032580612   -0.96472150869374
C         9.71701286393361    7.11910145076043   -0.05702337561128
H         9.89691438198850    6.61561836045888   -0.99647030403716
C        10.16170358631906    6.55632590999700    1.12623335173458
H        10.68792342082258    5.61311548713341    1.14311771228935
C        11.50381678537198    7.76653893532386    4.70979543655965
C        11.36577531269777    8.06055629585055    6.05788539798810
H        10.54143922575462    7.63870683559085    6.62652466432279
C        12.28027485980167    8.90266901688182    6.66623843624004
H        12.18176055068228    9.12839624587522    7.71766495359822
C        13.31620552161181    9.45023030999392    5.92856652841063
H        14.03160029866472   10.10373019402899    6.40664908847356
C        13.43937772145232    9.16942598188179    4.57623648284702
H        14.24454028831935    9.60405178910633    4.00186203320211
C        12.53619330436351    8.32233227537367    3.96399931941528
H        12.62110045366764    8.08056828076442    2.91218892226768
C        12.73330165250943    2.91685643149841    4.14770259997834
C        12.64829078422548    2.54020833020636    2.81315709113610
H        12.33919232175900    3.26929008986415    2.07780573788659
C        12.92398397271662    1.23226062807719    2.45872922459612
H        12.85430830311713    0.92666680258146    1.42444038798948
C        13.27654140059908    0.30782545289761    3.42982806492180
H        13.47459996256280   -0.71676663963252    3.14894670747554
C        13.36150950901067    0.68828474017444    4.75988552868115
H        13.62557314660848   -0.03619596198602    5.51676870285311
C        13.09386583327423    1.99594840820747    5.12212685732244
H        13.13422381779819    2.30728725537493    6.16194492263341
C        13.93001217587155    5.50166363428649    4.59559665505999
C        14.50985054025013    5.69089434573329    3.34788845945713
H        14.02252052286990    5.28653416206428    2.47108759303485
C        15.68894409153424    6.40355752490500    3.24367936847873
H        16.14426039816427    6.55720607305359    2.27588211883814
C        16.28457802915312    6.92531531517382    4.38185985272834
H        17.20377077217248    7.48673995695658    4.29744639836605
C        15.70525164051565    6.73048034422808    5.62460849477082
H        16.17083679424633    7.13910340270591    6.50948061088196
C        14.52607810734927    6.01607021016090    5.73457817552363
H        14.05181054178777    5.85751256472502    6.69606695810597
C        11.64773391072350    4.87452522289198    9.92095041390810
C        12.37550278694616    3.69560028187302    9.85884610840849
H        11.87721435780312    2.74783977669269   10.03612160942154
C        13.72683380255399    3.74763361023509    9.56248086651963
H        14.30018851613233    2.83370298952955    9.50210514243055
C        14.34103974173812    4.96901576007272    9.33974210088144
H        15.39545668769226    5.00356167324942    9.10421821584695
C        13.60999225666210    6.14690514313850    9.40623458138333
H        14.09424577032073    7.09620517452604    9.22563808388776
C        12.25873307486369    6.10242906749110    9.69048035601807
H        11.65595482753599    7.00182517405646    9.72810530680712
C         9.66065301617254    5.89375878011576   11.72236743213668
C         9.04412531257895    7.13314970941822   11.67517127038967
H         8.65690960128342    7.49031419840435   10.72770379360218
C         8.92621771759353    7.88142341647854   12.83335984905738
H         8.44537005418958    8.84823080034682   12.80456940011932
C         9.42312736261574    7.38835340024529   14.02888698560769
H         9.33000007543713    7.97333525171448   14.93241720051976
C        10.03678632682092    6.14547281703177   14.07240800753335
H        10.41970957091075    5.76451426203747   15.00807919602528
C        10.15918581498842    5.39441028125288   12.91849802690639
H        10.62722995743163    4.42045232498065   12.92808304242480
C         7.09935296420801    2.29131102127754    9.61600232378172
C         6.39510441171957    3.40665295177757   10.04364022575836
H         6.92340505669342    4.22482156072114   10.52151681283708
C         5.02651487394766    3.45953131786642    9.83957347144855
H         4.46970652633461    4.32734501492594   10.16173492381919
C         4.37823495671011    2.40910926480022    9.21065403183466
H         3.31232167134362    2.45801882729111    9.03981757912266
C         5.08821384161817    1.29482732077763    8.78672076957375
H         4.57399430819143    0.48457860139133    8.28920809605229
C         6.45261565391593    1.23107611901291    8.99176719807139
H         7.04025045972960    0.38341932987272    8.65958795268167
C         9.20613023173440    0.68233908934703   10.72401409485107
C        10.13701206589298   -1.50454614251709   10.99377072417532
H        10.70545085420584   -2.33600829799794   10.60304735700100
C         9.61755759185865   -1.56088156234929   12.27651582619185
H         9.77843210409027   -2.43930738077619   12.88455595851713
C         9.93260190285384   -0.37999752772410   10.21347977707270
H        10.33016553531982   -0.31251972648231    9.20704861872805
C         8.89413817542706   -0.49287761994298   12.78596084961176
H         8.49371523692062   -0.54033444116490   13.78814322871532
C         8.68552111666025    0.63206471737890   12.01071141583240
H         8.13063172930582    1.47973556569292   12.38765184974612

