84
CSD_code = QAVCOG | q = 0 | S = 0 | Stoichiometry = C34H47NiOP | MND = 5
Ni        8.01183938214402    0.65223687910182    4.14185296738130
P         6.87472608279989    2.56257824675025    3.99085894447889
O         9.30269183845032    1.08655777589248    2.88108689673308
C         6.92643340519494   -0.41210793426069    5.44005525907745
C         7.83082787858971   -1.27019282449246    4.84318143430919
C         7.44027173941752   -2.21807451173285    3.73813672710687
C         8.35146300622978   -2.23319127594608    2.53278858950087
C         8.19589864125980   -3.24862861609955    1.59444903043769
C         8.95286534553340   -3.27994677908930    0.43971828148897
C         9.87915754942768   -2.27874952350103    0.19665961194942
C        10.04599814550365   -1.26576669169250    1.11978167909865
C         9.29857018835474   -1.23944103005388    2.29489408071595
C         9.56872929057857   -0.10090344816025    3.23785765010540
C        10.62789680369242   -0.32282067695774    4.27181631927696
C        11.55980990974020   -1.35201117668683    4.19299600490263
C        12.52641870052994   -1.48276763678515    5.17474963743440
C        12.56828148346733   -0.60083422600999    6.24169253191091
C        11.63164684147890    0.41794556341544    6.33499482183465
C        10.67007379107895    0.55497999177756    5.35585532969909
C         7.88283253977622    3.90883121310087    3.16991716362947
C         8.95800262199242    4.41095482556641    4.13308451317896
C        10.00556477622867    5.22132067099593    3.37696062246250
C         9.34482701651319    6.40096945995174    2.67030733315632
C         8.24369585492406    5.91129323287168    1.73485437167286
C         7.19774246007033    5.09676879608340    2.49821889816074
C         5.95538022215497    3.26053312853255    5.45656756757492
C         6.85245478788155    3.30516050936944    6.69411504934109
C         6.00242687923070    3.56662349235170    7.93442909165489
C         5.23778548159847    4.87975579524027    7.78305781904656
C         4.37822549124108    4.86587668882995    6.52127126433852
C         5.24149343382562    4.59632890021019    5.28901197387329
C         5.53643035306869    2.26250944420001    2.71668833966565
C         4.29658671713216    1.58279564312567    3.29497416836096
C         3.32038505366740    1.19318440268216    2.18646163921323
C         3.98721816802179    0.26055347783885    1.18178259356694
C         5.20912200421594    0.94085850599306    0.57558024584960
C         6.18652251590409    1.35324544147091    1.66866533929210
H         7.10332981028797   -0.07346376233039    6.45665622465064
H         5.88028965282926   -0.44602004430675    5.15021990109950
H         8.71120652145692   -1.57646972385145    5.40685360843814
H         7.41014108161940   -3.23234893238628    4.15389107341756
H         6.42672060923648   -1.98027076538569    3.39122266965331
H         7.46232653067688   -4.02247872240731    1.77595558426405
H         8.81660853934639   -4.07966520457122   -0.27377939645161
H        10.46954537912960   -2.28972409219054   -0.70778227818042
H        10.76384285652830   -0.47709045898528    0.94463956197428
H        11.52894753144559   -2.04419688453105    3.36347987630446
H        13.25206953680126   -2.28069929368646    5.10716760256748
H        13.32507339908872   -0.71091514235119    7.00467589553798
H        11.65330481925020    1.09886632762682    7.17387640075698
H         9.90931282702427    1.33880590758487    5.42241557755049
H         8.40395026989625    3.33785562991538    2.38983549390218
H         8.50782124702033    5.04492328022220    4.89989823613194
H         9.43020779086038    3.55522835315509    4.62167191018945
H        10.77082623468035    5.58123605057769    4.06852356100732
H        10.49321029963874    4.57901329235503    2.64118353365976
H         8.91386689403127    7.07498082918590    3.41530243616188
H        10.08971737009841    6.96423244847908    2.10412569890987
H         7.76219653222666    6.76387678234373    1.24958843854552
H         8.68591413958764    5.28785657311587    0.95446677494012
H         6.43337570094415    4.76633684791649    1.79413233258844
H         6.72143398860612    5.73969803871951    3.23804788382751
H         5.19952486093966    2.48792012310509    5.65284251010593
H         7.38962029198671    2.35718687064798    6.78938690106345
H         7.59368717990768    4.09888691253227    6.59862428644407
H         5.29270859819375    2.74691037652469    8.06954782578905
H         6.63749486688175    3.60845529975874    8.82193864541584
H         4.60756988965757    5.04693414195754    8.65911588422824
H         5.95042791892898    5.70597652568033    7.72349554697309
H         3.61653387492002    4.08729974443103    6.60972510050154
H         3.86451866027152    5.82388670701206    6.41279784823011
H         5.97537402405839    5.39772944227689    5.19740901540862
H         4.62169520765310    4.59449976118709    4.39040052065802
H         5.22991622964450    3.20520282314000    2.25296515395473
H         4.59881108512746    0.68332995695636    3.83519169177414
H         3.78787347355694    2.24827732707758    3.99452634420923
H         2.44489856555221    0.70819167602587    2.62469006611028
H         2.97862604142319    2.09425644873074    1.67078738485507
H         4.29680819471082   -0.65736189939161    1.68699204621480
H         3.27896960582314   -0.01231823405808    0.39654454489459
H         5.70565645862018    0.26674129543321   -0.12557349125982
H         4.89015965231028    1.82672161103559    0.01975730946430
H         7.04705932701174    1.85586576300289    1.22296765946926
H         6.56413003009420    0.45351425856195    2.18362481219013

