63
CSD_code = QAVDID | q = 0 | S = 0 | Stoichiometry = C29H31OPRu | MND = 9
Ru        2.86684779072036    4.29642494562395    4.85418938226410
P         0.71909653460627    4.07169244993294    5.56560251024391
O         2.58476692555657    2.50615993044804    3.75775077808260
C         1.57900218230873    1.98632289387968    3.18979797423244
C         1.90939848171030    0.88153369281691    2.20407534014362
H         1.61666237605419    1.18940781233349    1.20331573500799
H         1.37503987814752   -0.03024671788668    2.45747017606753
H         2.98060599539047    0.69488595248282    2.22001037374732
C         0.23792078999577    2.30906279976161    3.40124369194174
C        -0.89071487115700    1.77768631904565    2.71522718133805
H        -0.85105644933407    1.06788156335592    1.90951753172230
C        -2.02860283227169    2.33778271338683    3.23640551958674
H        -3.03658083115656    2.14300507748408    2.91525642155873
C        -1.66947329205621    3.22577914394314    4.27097102071288
H        -2.35256609129508    3.81023648359937    4.86198217708488
C        -0.29066280154114    3.22907655094368    4.38069673784882
C         0.60324567829230    3.09489042898388    7.10626602474352
C         0.34914218573810    1.72962712916451    7.03787623687720
H         0.14173623999826    1.28359126137312    6.07446096675474
C         0.35051059995492    0.96256259726533    8.18915786819725
H         0.14963352500155   -0.09734364801404    8.13102120476535
C         0.60896425245228    1.55162950339421    9.41618036718858
H         0.61137383233416    0.95261501651532   10.31527455512000
C         0.86137300863461    2.91302225223633    9.49158083159316
H         1.05813435114717    3.37354544527213   10.44981062547989
C         0.86274396431057    3.68137351966960    8.34248386982463
H         1.05235224806957    4.74611062549952    8.39575737470514
C        -0.21531700482493    5.57092337802065    5.98961085952561
C        -1.31415789729780    5.53493059487207    6.84205389187457
H        -1.60474892288775    4.60220556467019    7.30531069548072
C        -2.02735797116925    6.69293016596024    7.09525770682039
H        -2.88132380360278    6.66437342792271    7.75684878919666
C        -1.65173656312586    7.88738895648871    6.50168744010475
H        -2.21117621666982    8.78907097963853    6.70455843265274
C        -0.56225145805387    7.92439278365138    5.64589855359881
H        -0.27426326785238    8.85530159728763    5.17887435394675
C         0.15292994929354    6.76898440356076    5.38895204100893
H         1.00244529341340    6.76406253853316    4.71637203328431
C         4.60334891668680    3.27784706891023    5.89062266675557
C         3.89350984430267    4.02501635555054    6.83888460108736
H         3.58815061549176    3.56964459798637    7.77396232312193
C         3.63402424025123    5.40438786836797    6.62735714254170
H         3.15013659805490    5.98583186398314    7.40873948364605
C         4.10929880787306    6.06371208072335    5.47304472375931
C         4.86293301052830    5.30390312935604    4.52769460855466
H         5.30785396865839    5.81008373001304    3.67674129957615
C         5.10064245445723    3.94252761820630    4.73559733299173
H         5.71383659637183    3.39071193441535    4.02946363338364
C         4.96132366590835    1.83130937357811    6.13748920102028
H         5.35705799483776    1.41585298357544    5.20285869260051
C         6.05980513771679    1.75314620417848    7.20341151148175
H         5.70096555114040    2.14600535420284    8.15310895813196
H         6.93349725894045    2.32844878133324    6.90082997503588
H         6.36271104214950    0.71931358234858    7.35254451919637
C         3.74480352302340    0.99857534677170    6.54220544095178
H         3.37259858478231    1.28565666571895    7.52361277130859
H         4.00843485512469   -0.05629626043570    6.57468274653963
H         2.94428745626033    1.13411680793966    5.81644822484281
C         3.98170724490914    7.55308464600413    5.32099374654779
H         3.15367004041833    7.93542817334853    5.91471465740174
H         3.81907371005733    7.82302767320772    4.27946218474268
H         4.90125767467590    8.03678351386243    5.65804978532300
H         2.23343539866758    4.96500077352439    3.63307249514914

