51
CSD_code = QAVDOJ | q = 0 | S = 0 | Stoichiometry = C25H23OPRu | MND = 9
Ru       11.36044474648780    1.89156515345229    6.86663181711314
P        11.73687784299148   -0.05389039563378    5.75028303273838
O        13.45788713721969    2.15920329745670    6.90129041010225
C        14.44074412170791    1.36085089335448    6.93761330238677
C        15.76122290014347    2.00138423060527    7.32008040853186
H        15.62296563660326    3.07500777843897    7.42327621377996
H        16.51753695579189    1.79982450366098    6.56636624454142
H        16.09896609288445    1.59357669121718    8.26969195700219
C        14.42287465404105   -0.00321937413601    6.64666902553507
C        15.50807637059144   -0.91815174836739    6.75624392485167
H        16.49351903962441   -0.67475019150956    7.10837755940683
C        15.08059488352598   -2.15939106972587    6.36139199413026
H        15.67035524593813   -3.05866223270054    6.34505440011468
C        13.72616992419247   -2.07727965065321    5.97858787691735
H        13.12457833632838   -2.89681790394322    5.62751364053618
C        13.30424532548258   -0.77139008462674    6.15198273741006
C        10.54505166343521   -1.41381860713231    5.89840657572031
C        10.49330899699397   -2.43770406794637    4.95712622647001
H        11.13928785819052   -2.40246681535764    4.09074385490556
C         9.61326799518180   -3.48997638954044    5.13295449165430
H         9.57385263171735   -4.28598495118481    4.40323495358885
C         8.78419446055115   -3.52688614701621    6.24303526727278
H         8.09790489179555   -4.35064899649135    6.37502029811950
C         8.83646562201365   -2.51032569841528    7.18326531149434
H         8.19168253373202   -2.54304404018649    8.04948747856686
C         9.71609299722112   -1.45641706053401    7.01278150189129
H         9.78675420066229   -0.65240364917456    7.73642595804559
C        11.76755658474400    0.27385511734507    3.95359533154049
C        12.96220467696641    0.69335453141774    3.37674798588604
H        13.85362639478686    0.72815541364193    3.98933470390545
C        13.00273340415110    1.04889570293989    2.04106588030868
H        13.93334939510959    1.36951066212831    1.59543512354886
C        11.85048090352800    0.99333082258245    1.27273517736394
H        11.88189942870629    1.27038931969845    0.22903135408610
C        10.65636726897685    0.58135431078403    1.84335818722597
H         9.75796368018761    0.53758913337767    1.24380193476279
C        10.61120808661595    0.22781045934553    3.17962231145919
H         9.68079040906835   -0.09579920769674    3.62818197097571
C        11.10040121180661    4.10710993001025    7.30509331618449
H        11.71259714023235    4.82406287973816    7.84091300776457
C        11.28988449323120    3.91822246549371    5.91256808992303
H        12.04740330252072    4.49725159283435    5.39526135654533
C        10.44276089137456    3.07725396121576    5.18675666967362
H        10.52352390602433    3.01492794591889    4.10741374788888
C         9.43083389960562    2.34970138697494    5.86383527304538
H         8.72785750127813    1.74586366680275    5.29619207424759
C         9.24564895855331    2.51480626367623    7.25278311099406
H         8.40488286552524    2.04279430282564    7.75118122676403
C        10.08687133825578    3.40953397894016    7.97078826898163
H         9.89644291217206    3.59603901235918    9.02239514606652
H        11.58618828153413    1.04580287373787    8.12117228803230

