149
CSD_code = QAVGUQ | q = 0 | S = 0 | Stoichiometry = C62H74N4O8Pd | MND = 4
Pd       -0.04560513468669   10.26280026561574   10.57708285551611
C         0.30982120526264    8.18390235727708   13.05198995875344
H         1.33002309828088    7.79769475978108   12.91265411651499
H        -0.29655529662505    7.37361087845705   13.48189394895667
N        -0.27178711612844    8.53748364188429   11.76669178974544
C        -0.99911124567907    7.58443890653231   11.18148894454033
O        -1.22141394266839    6.45326309772552   11.62027155288498
C        -1.54570673506737    8.01434797337932    9.84673965074831
N        -1.13699183465559    9.21357273632671    9.44697360250890
C        -1.48423259357672    9.71345292334156    8.26520545273798
C        -2.31443399438672    8.99858022616005    7.41015632369227
H        -2.57581243608822    9.43251927684185    6.45790664161537
C        -2.76760530149946    7.75031100133622    7.81205449407483
H        -3.41511882035682    7.17429733724136    7.16792876594452
C        -2.37338536169838    7.24157381958693    9.04101331916786
H        -2.68330591811507    6.27001621655173    9.39248943127160
C        -0.85564790690971   11.04330488073261    7.92375043289301
O        -1.05163340175418   11.57111779022520    6.83199656290347
N        -0.06625982704757   11.50006242075562    8.90567421127523
C         0.67739833356846   12.71747682590681    8.61324692397447
H         0.72073295715484   12.82193766575120    7.51953344466772
H         1.69793524353655   12.62213774639599    9.00398650936846
C         0.02283718064218   13.94129423189035    9.19759229581224
C         0.69433304797286   14.77208168708115   10.07952593416631
H         1.72457439473502   14.56380194171484   10.33367825311834
C         0.07032476564052   15.87154067365885   10.64649513991908
H         0.62911280657904   16.49683633745810   11.32463419591907
C        -1.25351415742388   16.15598590980654   10.33283315072722
C        -1.92626460509664   15.33684015532868    9.42241636279102
H        -2.94668813859568   15.58170738017440    9.17073534463448
C        -1.29502182065455   14.24768907184773    8.86355734082596
H        -1.81796777599133   13.62245374856144    8.15584493226449
O        -1.97687113341736   17.18652611590569   10.84969953958923
C        -1.41082193382082   17.94895990561874   11.89644760371116
H        -0.57800625503267   18.55934712521376   11.51865300825165
H        -1.03150008815063   17.27446916673725   12.67400010395155
C        -2.50968486384341   18.84702663073105   12.45601827671148
H        -2.90751194292538   19.44818432182299   11.63654746141555
H        -3.32269031164343   18.21594832640779   12.81699947727605
C        -2.02107258956614   19.77738891095962   13.56732246740862
H        -2.88154601989957   20.33195655242391   13.94778437151704
H        -1.32411033746184   20.50286584515020   13.14080412916688
C        -1.32505769383651   19.07311377370894   14.73458379099014
H        -0.39967383016946   18.61311562314558   14.38189531871591
H        -1.04590483752678   19.82827576247242   15.47350216888660
C        -2.18697221966676   18.01167913454101   15.41448560831468
H        -2.52222454284943   17.28150731776507   14.67612604473932
H        -3.07508764657590   18.48215371716976   15.84226102134952
C        -1.41508984326301   17.27313753254612   16.50555411798732
H        -0.51748607117663   16.83920423281017   16.06170217953684
H        -1.09762611347885   17.97970012465103   17.27573776072975
C        -2.25524317788702   16.16935729350388   17.14285137025785
H        -2.59931665454474   15.48752513835081   16.36333553680937
H        -3.14203118370760   16.61975744105109   17.59594192701872
C        -1.50813126438171   15.38180267227073   18.22076525506187
H        -2.21369246161043   14.71004590812363   18.71647305696496
H        -1.13810796456317   16.08232469393763   18.97268795200706
C        -0.32761985712161   14.55787382343140   17.70698432520314
H         0.39558239764705   15.19659520229811   17.20024866906659
H         0.18272535750416   14.10198724803815   18.55783443683080
C        -0.74283565347390   13.43293129459779   16.76291742822064
H        -1.51227590376531   12.81288255536259   17.24475943963112
H        -1.13964246068412   13.82496538151608   15.81814201733935
O         0.41386850277985   12.66239198147476   16.49654341928271
C         0.30439253155745   11.58686823945964   15.67296033672796
C         1.50280134333867   10.94877066172450   15.34774303657941
H         2.41830118373404   11.33678180080109   15.76608147064584
C         1.51034291945719    9.85731820179498   14.50715056355066
H         2.44728660398894    9.37830495507718   14.26067965161546
C         0.32369644733769    9.36529749411248   13.97507814493872
C        -0.86797289902164    9.99062098662343   14.31656490782277
H        -1.79997584246930    9.60494967979035   13.92350450445538
C        -0.88766775966905   11.09207936982321   15.15566546234505
H        -1.83314954816457   11.55634288533521   15.38778752449377
C        -2.65387165167056   14.11721986814009   12.91196280343991
H        -2.79584045128361   14.37062409713119   11.85218258493533
H        -2.77484622520491   15.02248202717457   13.51294736809332
O        -1.30763498201985   13.71826549331328   13.13039822072569
C        -0.88335236975043   12.68666355483445   12.27520044253971
H        -1.12286027992928   12.94356101383902   11.22344097980759
H        -1.38348638630043   11.72326209188709   12.51550648829671
C         0.60162390049310   12.49729218033644   12.37587637499457
N         1.10003161698030   11.46553443872902   11.69457495743140
C         2.42276135252767   11.28110975919247   11.64859075865905
C         3.30397283531238   12.10125888520401   12.33249677093664
H         4.36087324487803   11.90383964021493   12.26657502513904
C         2.78873085389282   13.15006533843224   13.07818529648078
H         3.44703552417632   13.80308850005123   13.63022043596249
C         1.42039352319929   13.35921575097688   13.09056459141679
H         0.97132392180499   14.17163620104350   13.63539164035541
C         2.84995042285713   10.12771142054607   10.79160956420401
H         2.29753180114823    9.23236380040168   11.14990774356043
H         2.52743080995216   10.32966123364841    9.74079184482388
O         4.23147970968478    9.89504715080340   10.83099252986680
C         4.58429541923340    8.72123566871869   10.10256227959501
H         5.67120421591563    8.66151038137182   10.18316518102472
H         4.30539980710196    8.85108945401809    9.04602095148753
C         3.92856026930070    7.49155873482162   10.67313462404353
C         4.46314623303174    6.88141235862840   11.80384066866252
H         5.38852715201748    7.25283605207610   12.21893011870822
C         3.82011284932657    5.82151197013107   12.40115106811378
H         4.22565214204609    5.34565721908352   13.28020813891773
C         2.61262174860626    5.33721327566312   11.88577909284490
C         2.07940374755172    5.93490105098656   10.74562470456337
H         1.15272690518140    5.58522351222712   10.32068019170914
C         2.73013986500710    7.00791527963959   10.16099377273766
H         2.29097950862330    7.47165247521844    9.28497081326225
O         2.06375890967071    4.30795921751973   12.56063097691213
C         0.80107158013168    3.79608317313373   12.15869830363484
H         0.92100736686381    3.21719525242159   11.23204141136631
H         0.09551798487503    4.61312332007484   11.97945762676119
C         0.30293826018997    2.89835223708703   13.28808220354127
H         1.11729453240874    2.22764461681200   13.56882052346624
H        -0.52919890595923    2.29580039354896   12.92081678280326
C        -0.14140142797440    3.71199997970440   14.50531966372597
H        -0.20252041053805    3.05662430774112   15.37742533467944
H         0.61612497824345    4.47020473046324   14.71231141848861
C        -1.49373497110189    4.38032044167218   14.27471923587520
H        -2.26521968925244    3.61018731680035   14.19470689699698
H        -1.47569000768526    4.92655720227871   13.33185325054021
C        -1.87700211418020    5.36185819261285   15.37937428472051
H        -1.98246473149460    4.83894128461982   16.33333012100077
H        -1.08525276114471    6.10654019278557   15.49633876089753
C        -3.18257770511847    6.06433769702961   15.01910412609347
H        -3.98537257411982    5.32443664168791   14.97179180220007
H        -3.07698459810145    6.49602985133934   14.02099455283062
C        -3.57585782543515    7.16870324873410   15.99569131298672
H        -3.67598165853259    6.75776321072232   17.00314977487960
H        -2.78837764101696    7.92648933065001   16.02236004469744
C        -4.89128756333155    7.80974050549955   15.56401535658415
H        -5.68934900448013    7.06492755357340   15.60561217264057
H        -4.79881802054868    8.13224536924151   14.52463959396708
C        -5.28571971080599    9.01618726920663   16.41167051136353
H        -4.45114928235829    9.72032448859841   16.44361655239770
H        -5.51206747156133    8.71041164327308   17.43444714832343
C        -6.51686290932495    9.70713747722976   15.81869341835040
H        -7.35170679171468    9.00294915991380   15.77109133308519
H        -6.82383499527724   10.56382110247473   16.43182429338929
O        -6.31343975104029   10.09050529076580   14.47265731711764
C        -5.41931419900276   11.07124276646059   14.18362009361737
C        -4.98102395319702   11.12495035411385   12.85836739569142
H        -5.34964546650118   10.38238801601698   12.16818084574746
C        -4.10397873107181   12.10499067416303   12.44527936870337
H        -3.77712562599055   12.12763232941195   11.41446995847028
C        -3.64394477722014   13.06677654827451   13.33982236339020
C        -4.07776685437787   13.00641863874343   14.65585552196029
H        -3.73462957003626   13.74590030429545   15.36570186232522
C        -4.95102292631736   12.02347145222866   15.08404187656060
H        -5.26943207111902   12.01963842434770   16.11482980871234

