97
CSD_code = QAVHAZ | q = 0 | S = 0 | Stoichiometry = C50H28N10O6RuS2 | MND = 6
C         4.02156412958270   11.80635543880465    7.79358846171908
H         4.85807240186051   12.24058355883579    8.32061438662399
C         4.20090740748693   11.24165501045777    6.53525279401262
H         5.18990933148398   11.21409842393096    6.10656032036894
C         3.12321834001519   10.70738251580463    5.85918123517438
H         3.21863793583905   10.23235548754507    4.89582609295084
C         1.85981264287428   10.82004450525827    6.44306082088953
C         0.64314884841174   10.38122053380524    5.79185036914557
C        -0.40538146595270    9.37006686696767    4.03654817535952
C        -0.35398307811481    8.68113806394343    2.80614072027728
H         0.61496737704349    8.45986146446086    2.38674878362691
C        -1.51367263909433    8.31858836366762    2.18261457879800
H        -1.48070234292715    7.79336908489645    1.23944971576438
C        -2.76561565681090    8.62070557612790    2.75242235420611
H        -3.66361340577769    8.32051479314626    2.23280459188629
C        -2.85210570154632    9.28371211221342    3.94325511574432
H        -3.80080801444712    9.52514690346517    4.39654980361031
C        -1.67433554035737    9.67543320092805    4.61456237733942
C        -0.63328403181906   10.68401157740086    6.37534092069967
C        -0.70108986664088   11.42694474583307    7.61608732404103
C        -1.89616799248992   11.90582782268373    8.15941393305970
H        -2.82881478016899   11.66641528317789    7.67428511129840
C        -1.82611073139231   12.70883812566561    9.27993989388410
H        -2.71706292044740   13.14640150059954    9.70172781826682
C        -0.59765005444287   12.94613416866244    9.88794889073945
H        -0.51605559091469   13.60238843381843   10.74399429383288
C         0.49194456324582   11.71962403963454    8.29036997990611
C         1.77027681947353   11.42014904293777    7.70672322250717
C         2.60220720858217    9.13228453312442    9.83392093450566
C         1.94120035007045    7.81691419882721   10.10370669182581
C         2.30973960323947    6.58988493106280    9.57501679606188
H         3.15013644910513    6.52969149785444    8.90090073196484
C         1.57685540565000    5.46958906637485    9.93768966423216
H         1.84603379048926    4.50290181827443    9.53826422647256
C         0.50199775970792    5.57316616588140   10.80930200533315
H        -0.05405894294376    4.68835586359279   11.08073214749235
C         0.13345793843397    6.80449488302735   11.34053467109598
H        -0.69729191328555    6.89965879776441   12.02152754463884
C         0.86540160257528    7.90804644313601   10.96919433083837
N         2.84372020132954   11.85863410189311    8.39595150914131
N         0.53280191071078   12.41270177540961    9.44751424964589
N         0.73220490296238    9.73811466587547    4.64484724672043
N        -1.75620598777064   10.33411240223693    5.78040231275944
N         1.98827349271482   10.13678432557619   10.46938492196608
O         1.08187266338733    9.80882492737680   12.82033423227278
O        -0.48956008372053   10.22412683942017   10.99883293315864
O         3.58445084603332    9.24767432443940    9.10985774449481
Ru        2.32753285445031   12.19462688788911   10.31276569119565
S         0.75235311708679    9.63370529674511   11.43052319603550
C         0.63255488564041   12.58399372962524   12.83171776043744
H        -0.20381502361350   12.14925384753738   12.30487301399393
C         0.45326690324274   13.14794381593962   14.09041632135901
H        -0.53572971040458   13.17537101389035   14.51913880793814
C         1.53093890340298   13.68207240800368   14.76662767772861
H         1.43547423438169   14.15708726255858   15.72998862558258
C         2.79436885688935   13.56948615256026   14.18277896259815
C         4.01101161773454   14.00826379817464   14.83407589902827
C         5.05948772018161   15.01938897291073   16.58943497151182
C         5.00805165205573   15.70828574480139   17.81985952773292
H         4.03908740851494   15.92957752862604   18.23920995503448
C         6.16772209370913   16.07081676561925   18.44343298109562
H         6.13472214653828   16.59604973218113   19.38658832252107
C         7.41968398874826   15.76871058352946   17.87365979375625
H         8.31766560559921   16.06888830457798   18.39331260402238
C         7.50621241354659   15.10573381950857   16.68281450960120
H         8.45492972531145   14.86428470629855   16.22955836658623
C         6.32846293658609   14.71404450809191   16.01145488896108
C         5.28747093483168   13.70551263328423   14.25062375304229
C         5.35534155233619   12.96261254715420   13.00987454979115
C         6.55046237832884   12.48378927913623   12.46658284197810
H         7.48307050865126   12.72312806760154   12.95181489466773
C         6.48048786766029   11.68073300015707   11.34609496524615
H         7.37144433964043   11.24315810688110   10.92434826087911
C         5.25202264987393   11.44290562267006   10.73839701258930
H         5.17056611202930   10.78700991531294    9.88207918491539
C         4.16232893469738   12.66983936603201   12.33559968592518
C         2.88393635816520   12.96965477748705   12.91899128001822
C         2.05211935104004   15.25719388405412   10.79200069836888
C         2.71315730242352   16.57256168659542   10.52216883046447
C         2.34469070415994   17.79962668679280   11.05082757528162
H         1.50433635509470   17.85986697974566   11.72499016852172
C         3.07765461191465   18.91988208927138   10.68816257408615
H         2.80855979433081   19.88658594911671   11.08761450737096
C         4.15251644991068   18.81624448194465    9.81656621690962
H         4.70863191078350   19.70102033377654    9.54514011331300
C         4.52096906313442   17.58489405655336    9.28532993973040
H         5.35172504357986   17.48968241593796    8.60434703412710
C         3.78894915976166   16.48138437566099    9.65667596262609
N         1.81043223159530   12.53192846136758   12.22932520323867
N         4.12156022436731   11.97622398142333   11.17880560788998
N         3.92192141296267   14.65134906496630   15.98109075983770
N         6.41037207378251   14.05538837510693   14.84560840320267
N         2.66599739211619   14.25266856655902   10.15651881256998
O         3.57238078440950   14.58061502572047    7.80554468315589
O         5.14384401651898   14.16531476302722    9.62701343835124
O         1.06990876288104   15.14178820558254   11.51610190532354
S         3.90191620814766   14.75572421615191    9.19535227949550

