65
CSD_code = QAVHEB | q = 0 | S = 0 | Stoichiometry = C25H28N2O6PReS2 | MND = 6
Re        1.26577283258931    3.16976571590790    4.84560833683269
C         2.35118387453031    2.28319303984236    3.49010496851290
O         3.07502523219691    1.75666042419677    2.78308003455183
C        -0.32299306934218    2.15889533228807    4.34939158637849
O        -1.24192876299203    1.56300878431905    3.99492719112264
C         0.78903316879986    4.66379925770533    3.68723969798316
O         0.56427217950821    5.57510886996364    3.02943553930504
S         3.48848157369954    4.17912805035920    5.58598763182687
S         2.39354491161663    1.66606394289008    6.57424173802049
C         3.62595793324285    2.84549649354061    6.63489510340052
N         4.65346168087273    2.73166350949439    7.47993630715981
C         4.82557855016436    1.59023258336180    8.34252488028215
H         4.68250613373690    1.88097602180678    9.38677040469009
H         5.83483313089428    1.19162274330050    8.22257982210343
H         4.10392458234300    0.81715807796961    8.08757223526816
C         5.68275170965695    3.73557875379677    7.57996977609468
H         6.61034931168279    3.37798490501975    7.12495171987991
H         5.86592852911581    3.96029330257498    8.63201170221518
H         5.36716140224661    4.64448022854427    7.07196411997908
P         0.31152293337089    4.13913258944268    6.86863518316172
C         1.48932348270891    4.98260006904356    7.96501355627853
C         1.87341415493679    6.29604966220399    7.70596059445179
H         1.41276741268169    6.84936125070658    6.89997563253374
C         2.85723171870540    6.89141667893500    8.47370953891544
H         3.14972124178320    7.91073211757831    8.26984712133882
C         3.47392671729454    6.18201125214746    9.49161191615060
H         4.24576263624166    6.64924221419002   10.08571371575846
C         3.10692808075730    4.86971747145784    9.74073184586008
H         3.58919968890831    4.31224769440693   10.53176112893036
C         2.12454870788471    4.26662164698750    8.97739678533699
H         1.84874107505114    3.23595133057337    9.16200034972034
C        -0.57987915154309    3.04533393306367    8.02336488514174
C        -0.88183873663633    3.44852962891720    9.32242062462839
H        -0.54527333815715    4.40881794421845    9.68784213430555
C        -1.59350375028262    2.61009345180591   10.15980102149392
H        -1.82276946692752    2.92879779284244   11.16666560663444
C        -2.00661296396142    1.36394363586796    9.71527804672523
H        -2.55977353737801    0.71230422915430   10.37533310633459
C        -1.69776956314404    0.95296656467877    8.43007778780170
H        -2.00506585917568   -0.02162062756458    8.08185154843009
C        -0.98661561991931    1.78973664653324    7.58866221611011
H        -0.72590495285214    1.46250988694506    6.59082446957887
C        -0.94735715116114    5.43209316126157    6.49099313023214
H        -0.46003989426639    6.16675854698167    5.83912798315681
H        -1.71793827450573    4.93539048364084    5.89057667479951
C        -1.56636103073186    6.15594883566182    7.68333759935398
H        -2.31781550950010    5.53597506574668    8.17307545620922
H        -0.78593623973808    6.40517228441448    8.40932696601302
C        -2.15637755605007    7.48252126430459    7.21550096427951
O        -1.53718087097723    8.25168331204394    6.51421848107640
N        -3.41490523898289    7.72638745409346    7.64446192884846
H        -3.86851622556496    7.07989323089325    8.26962757080314
C        -4.10195570802940    8.96073819886696    7.34740710511010
H        -5.14701204469888    8.75111650431994    7.10624233069173
H        -3.60932573083575    9.39419300356822    6.47433707336134
C        -4.04203062496209    9.94778624487301    8.52024518798966
H        -4.38066372908183    9.44886198262880    9.43266598095089
H        -3.02789972869220   10.31378349547185    8.67442225047122
C        -4.96991021866685   11.11742870219884    8.27127995807163
O        -6.08597000932842   11.02724678970175    7.83422154067440
O        -4.39312383050642   12.27142864830475    8.61043046089274
C        -5.17457822237404   13.44619308507856    8.42727543766540
H        -5.46695204247456   13.54495687090485    7.38035944571180
H        -4.54624963082713   14.27929400235262    8.73030829615442
H        -6.07602630293074   13.40054173165844    9.04128656623555

