43
CSD_code = QAVJII | q = 0 | S = 0 | Stoichiometry = C19H18AuBrF2N2 | MND = 2
Au        3.13291974279850    5.01588531786592   -0.63441318402131
Br        2.91968607208723    4.98759721212099   -2.98424811316645
C         3.30715766853736    5.04385265063678    1.38619474419303
N         3.65941994714886    4.01839975081883    2.18192271758903
C         3.65218348997979    4.41215522826181    3.50170098608028
C         3.28962899473963    5.73253076471805    3.51172317770728
N         3.07926810862383    6.09090152121039    2.19898347249628
C         4.13897540005990    2.74816599885877    1.69448561539054
H         3.79293078760725    2.64612313620909    0.66268175026451
H         3.71377209401198    1.94157926177008    2.29393314119825
C         5.66227363858281    2.68599807922782    1.74308963897657
H         6.00232069057537    1.73235866025252    1.35070697747179
H         6.01734603283678    2.78918705939563    2.76655690396594
H         6.09089359471121    3.48226310744143    1.13889266307147
C         2.52306877496538    7.34709513703409    1.75929727289770
H         2.72692946302230    7.43619144163206    0.68914455496425
H         3.01285196338438    8.16796452329621    2.28571847941842
C         1.01882945015260    7.39125023796827    2.00948090579206
H         0.61496833570807    8.33315033149341    1.65082885048803
H         0.80498060554959    7.30161100310902    3.07276602797793
H         0.52583782844386    6.57866422436239    1.48063215455642
C         3.98645170197081    3.56685739985813    4.64694695508299
C         4.95346901710556    3.99608563012276    5.55403660061765
H         5.46060418245163    4.93397342227738    5.38591452792331
C         5.27123423043771    3.22977786793194    6.65830894980601
H         6.01985377241585    3.54843978577088    7.36569349524562
C         4.60930515623017    2.02941712696338    6.84905118752677
C         3.63373571223861    1.58640620322749    5.97370501603416
H         3.12746739728801    0.65314834998201    6.16205338443817
C         3.32282002441976    2.36297950815738    4.87382789927518
H         2.53871469014425    2.04223688623100    4.20394183452617
F         4.91540896820570    1.27624248297540    7.92054764295339
C         3.12814875359445    6.61100740507487    4.66958153955735
C         2.29568328931023    6.21747246750276    5.71552341086950
H         1.76430863255452    5.28035679587546    5.64771101930091
C         2.14109062293190    7.01816381884355    6.83023577784631
H         1.49699817763390    6.72799037711363    7.64469120200881
C         2.83090439859358    8.21647973881064    6.89052573213205
C         3.67649754345283    8.62449043305511    5.87428493910245
H         4.20987783722843    9.55753268964286    5.96208600482809
C         3.82443309445672    7.81395439013883    4.76486392614679
H         4.50747511607261    8.10760365168513    3.98135398302323
F         2.68277499774222    9.00295892106530    7.97153623443613

