70
CSD_code = QAVMOP | q = 0 | S = 0 | Stoichiometry = C34H27O6PPdS | MND = 4
Pd        7.90027199541385    2.72442237262988    1.94502594678171
P         6.82297195205532    4.67891634584102    1.85568011242625
S        10.27847692120860    3.73535201746484    1.38848483780955
O         5.66584169410437    4.93950368659719    0.77075834457524
O         6.08757937070950    5.01378417228142    3.25762042159181
O         7.69207540449949    5.99691917073765    1.53450483099587
C         4.71500742980511    3.92634172039995    0.98344423249137
C         4.83785043221259    2.72896855540570    0.26501311521573
C         3.94609831567501    1.71873204635081    0.49589676177996
C         2.95892815967011    1.84342124133820    1.49577893184680
C         2.87484252243488    3.03927730873115    2.25790835332906
C         3.76460480280705    4.10754883979323    1.96161171371981
C         2.07687359656000    0.78227224154069    1.78769566126497
C         1.17398165873396    0.88193967826727    2.80788142463409
C         1.12523173317460    2.04430081773436    3.59100201542801
C         1.95438784722886    3.09770676562908    3.32439481862300
C         4.94236887387320    5.78640532624315    3.32170459372924
C         5.00624756747497    6.97109559555962    4.07190012712184
C         3.89840343307905    7.75723916292968    4.20136925269993
C         2.69409390519051    7.41608318181551    3.55140180474742
C         2.63169908692620    6.22491403724788    2.78042371798991
C         3.77476001320927    5.38206782424571    2.70707425482549
C         1.55361197014402    8.24232465685907    3.63299800618147
C         0.40703744421035    7.92395126827542    2.96189012447047
C         0.35792388652125    6.76922620147484    2.16682328239352
C         1.44158236067991    5.94083567560986    2.07605999628727
C         8.91787130513564    6.04151128500469    2.26020615919819
C        10.06606495116882    5.56033990655352    1.36758834396160
C        10.22520449339885    3.32142953150781   -0.39852134577587
C         8.81280625546864    3.15335517982223   -0.92966129976957
C         9.16757883307940    7.44609016383195    2.75059876087199
C         9.98550321904629    7.65066201208117    3.85521724399888
C        10.22947388270426    8.93375396252657    4.31008987786077
C         9.65452960252859   10.01940777195333    3.66942789785179
C         8.83651468472255    9.81761424501964    2.57137404762191
C         8.59573046951671    8.53507173244789    2.10909608225190
O         7.58263522959083    1.79496623643075    4.36982131151046
O         9.82439211249116    1.61638503485661    4.11743277642927
O         5.36152495508862    1.87609592457174    3.89504119928915
C         8.72171308075387    1.40511100220354    3.68084677682062
C         8.30976719378541    0.72641320967915    2.44056552898173
C         6.92834164523619    0.83230097060252    2.36896348675184
C         6.47389162538210    1.56084945794487    3.55967333650649
H         5.62949282624302    2.64522206544261   -0.47004612956102
H         4.00948222745996    0.79521877708324   -0.06172275732094
H         2.13988295931798   -0.11940483673426    1.19503071021766
H         0.50633415437940    0.06216632424972    3.02894295147422
H         0.42957014461849    2.09910502537299    4.41520794971171
H         1.92262974454599    3.98198188524784    3.94136389565872
H         5.94496063386910    7.22989841829850    4.53775191843219
H         3.93790148026778    8.66370255521459    4.78718391091493
H         1.60963474609596    9.13906369714333    4.23330116269382
H        -0.46165420371579    8.56204372171245    3.02874335061285
H        -0.54519336992097    6.53909897174053    1.62115148286806
H         1.39912885140633    5.05967931939197    1.45424505045843
H         8.85520497897502    5.36635483731712    3.13542297569924
H        11.00786183060515    5.97446552559834    1.72799551990038
H         9.88926977667090    5.87851698890822    0.34210430605412
H        10.77263171011808    4.10088616129666   -0.92744526350810
H        10.78087816511701    2.38575616864994   -0.47085282320868
H         8.83747782587921    2.90575917722108   -1.99006957341283
H         8.23876107726970    4.07510191293900   -0.80076508685054
H         8.31009912268974    2.32744066932121   -0.38948096705103
H        10.42286841640461    6.80174035423838    4.36048106050727
H        10.86368756614088    9.08590241694021    5.17045745304838
H         9.84165222659034   11.02022395829865    4.02890195012580
H         8.38337144820097   10.66043841640438    2.07106324822918
H         7.95240719495947    8.36852816804675    1.25920584903349
H         8.97428930548816    0.08778665895003    1.87489825052704
H         6.24107324363465    0.34131512365520    1.69332273747492

