27
CSD_code = QAVMEG | q = 0 | S = 0 | Stoichiometry = C13H7ClNO4Re | MND = 6
Re        1.90114261637339    1.39663234411646    1.53479741086212
Cl        1.99417258578188    0.71973466960986   -0.72689579822448
O         2.04522743564793    2.44116886110160    4.44488420249599
O         3.25924160711608    3.75213140900007    0.06672476619243
O        -1.03039888381593    2.28528858523713    1.13912567885077
O         3.79355966562514    0.36459874353853    1.62089370501457
N         1.41413493739068   -0.55270057631992    1.92980996569381
C         1.98125223293195    2.07168723459471    3.36405544023001
C         2.70895986967329    2.99400174631057    0.70628838926107
C         0.06497536717051    2.01148165647136    1.31453608352188
C         3.67536574916705   -0.87504476786505    1.53985619510559
C         4.78301411589726   -1.76135447761427    1.33883992183911
H         5.75896808612239   -1.31905144344506    1.20888889626192
C         4.58789707090612   -3.09740171777505    1.29739712808839
H         5.42383089866322   -3.76180867287485    1.13032306366704
C         3.29548175558625   -3.69578841270361    1.46483796637599
C         2.15730476871141   -2.88492592589414    1.68096356298907
C         2.33564127618946   -1.45275196168180    1.71326359948524
C         3.14025074908690   -5.08455536243711    1.41276418660415
H         4.01112423750803   -5.70160263116172    1.24639948255056
C         1.89947480947582   -5.66362982098552    1.56864689098589
H         1.79328387897384   -6.73689367266093    1.52639366178969
C         0.78023770569341   -4.86461772640514    1.77751852000065
H        -0.19161099366271   -5.31900220726476    1.89619214139684
C         0.90675692845668   -3.49288513195944    1.83081006347564
H         0.02206049455282   -2.89134502288395    1.98615876762118
H         0.48195103477181   -0.93206571805203    2.09932610786273

