103
CSD_code = QAVQAG | q = 0 | S = 0 | Stoichiometry = C50H42Cl2N4O2P2Pd | MND = 4
Pd       -0.31171190301502   11.83427352985077    5.76556226773733
P        -1.68180795033793   10.13160433185531    5.16069589175033
P         1.06183093347290   13.52944100064942    6.37353503318815
Cl        0.88186158558994   10.29815430774912    6.97646544998552
Cl       -1.48842296285884   13.38988568928494    4.55974978269834
C        -0.85535062459931    9.28067324364472    3.78348836650062
C         0.42465349938558    9.70030116466911    3.42827133705119
H         0.90916392224502   10.50629061429003    3.99546350446469
C         1.08227587967841    9.09816287460958    2.37026858047474
H         2.07601928564577    9.42112320690122    2.09669246975845
C         0.46398271622398    8.08062426556196    1.66174005970113
H         0.97778541545620    7.60828073697966    0.83757766002660
C        -0.81700268640711    7.67281051066652    2.00071894693119
H        -1.30028471578245    6.88713276581959    1.43856104404980
C        -1.48171543547942    8.27348312286025    3.05388544073532
H        -2.49056698747907    7.97600791836145    3.30696032886720
C        -1.91727168314881    8.93152534558829    6.50123615124522
C        -1.78796011296702    7.55659686655769    6.37647701912228
H        -1.51173290437015    7.12012779038448    5.42754953868356
C        -1.99538134862034    6.74909897989413    7.48251993521188
H        -1.89060631306281    5.67794558006861    7.38940013740023
C        -2.32853317314209    7.30789952779183    8.70452095255552
H        -2.48686036246119    6.67132456697549    9.56266906474958
C        -2.44511237105960    8.68399475220584    8.83403568734245
H        -2.69022027687929    9.11927573738916    9.79190541462023
C        -2.23478931451013    9.49383514424815    7.73626019172433
H        -2.29495089563757   10.57887284947065    7.82048580569243
C        -3.36045586869327   10.33505686987542    4.49338623983106
C        -3.48415694655607   11.12860069963171    3.36171575117940
H        -2.59904701903904   11.58627011559764    2.93911071090449
C        -4.73203319101110   11.36836238578277    2.79606291167902
C        -5.85843343437810   10.76768310632635    3.35491959543670
H        -6.82532986517602   10.93652264255660    2.91218978873916
C        -5.72454230746995    9.96871531018249    4.47577613587564
H        -6.60389463763712    9.51197767795459    4.90535606747575
C        -4.48900311955338    9.75497724604321    5.06232095348839
H        -4.40200555586149    9.14220760237347    5.94799775753153
C        -5.86904161801437   12.54904431718008    0.91602662340868
C        -6.37174344542274   14.10807335070598   -0.97031764582819
C        -7.68118937977739   13.70119277670314   -1.20536111604638
H        -8.10488424672464   12.90586629573457   -0.61659806742146
C        -8.42657440922225   14.32450954896330   -2.18943553722129
H        -9.44230338955178   14.00216393405184   -2.36398881955755
C        -7.88739874170161   15.34973067625715   -2.94733808215425
H        -8.47704708446247   15.83043011708333   -3.71315245905190
C        -6.58381810732255   15.75511877985907   -2.71504616276768
H        -6.15076148487807   16.55422230147830   -3.29862316158080
C        -5.82978012563555   15.14015453553260   -1.73485820703132
H        -4.81187756025838   15.46022367196365   -1.55580401364831
C         1.32301263073532   14.71770827795398    5.02699094459524
C         1.64392406547937   14.14346881692077    3.79824543775330
H         1.69271269290662   13.05720794368375    3.72184493205755
C         1.87223313905569   14.94329753324451    2.69667920784616
H         2.12065627974743   14.49871905135597    1.74395879893176
C         1.76932788174908   16.32142421981560    2.81579796414047
H         1.94084511203225   16.95034283612145    1.95455446193883
C         1.43281817183744   16.89219726513506    4.03131807346235
H         1.33872272514393   17.96502123143330    4.11622255020773
C         1.20838727656481   16.09480381470401    5.14135970223528
H         0.92979899664501   16.54111514838118    6.08496395249398
C         0.22786763749070   14.39665483983912    7.73589644486634
C         0.85387500277452   15.40691782637968    8.46173605032810
H         1.86762090427182   15.69431125771374    8.21658027103561
C         0.18257835402761   16.02334021214932    9.50152152260590
H         0.66574831537282   16.81121281709204   10.06072124199783
C        -1.10520139879011   15.62893312322424    9.83057147756038
H        -1.62477703106447   16.11485714049220   10.64316593476156
C        -1.72279409179075   14.60748802340224    9.12711395982567
H        -2.72175908834938   14.29462171618759    9.39330246612402
C        -1.05810951741911   13.98867230903543    8.08311486679495
H        -1.54195767027124   13.17852601911837    7.52137401628142
C         2.73054935273682   13.31345196674483    7.06027923426104
C         2.83022603078701   12.57276110299758    8.22976725471964
H         1.93225957201655   12.15735065810546    8.66908114162204
C         4.06909750025382   12.33747058519815    8.81670540463126
C         5.21216646079435   12.87982740106457    8.23232505768115
H         6.17251927652452   12.71345697446903    8.68979809924762
C         5.10295373843989   13.62165487429758    7.07043212347677
H         5.99493843160941   14.03335358783214    6.62181800557845
C         3.87501914809949   13.83661889485743    6.46879779408435
H         3.80614706935878   14.40759805384159    5.55407273060722
C         5.15976125648912   11.29780624657269   10.80374618804074
C         5.60179595850049    9.94025144883005   12.85411190025896
C         6.91736735332044   10.34175486327030   13.06311176136194
H         7.37292383763287   11.04443524028580   12.38682380168397
C         7.62727594516677    9.83418304927489   14.13594721798668
H         8.64797575988639   10.15180316817030   14.28896004101532
C         7.04663448127347    8.93024026452357   15.00882404563723
H         7.60805918063530    8.54015595880566   15.84425525331534
C         5.73757140746050    8.52900245560573   14.80157683691120
H         5.27213903218992    7.82384805182937   15.47451046621145
C         5.01894128279923    9.02848311551087   13.73306031627035
H         3.99669883650004    8.71119623943160   13.57483241348513
N        -4.78088312846691   12.22680940226488    1.69981914581963
H        -3.90284527604977   12.69178404416577    1.51447868532997
N        -5.55135267868986   13.52516408318315    0.00051814235344
H        -4.62469666776660   13.92569466404361    0.04750255462476
N         4.09455850180161   11.54585506613564    9.96341394481064
H         3.20902148474145   11.10420050504211   10.16854721786506
N         4.81521838283973   10.41267579939099   11.79864132415643
H         3.88353156074058   10.02200895951860   11.77569538852538
O        -6.95431006169628   12.02533646223671    1.01473641516123
O         6.24933690440825   11.80817500297717   10.68474048990478

