66
CSD_code = QAVRUB | q = 0 | S = 0 | Stoichiometry = C26H34ClN2O2Rh | MND = 8
Rh       11.90770087404710   11.59308091648579    5.82595243991015
Cl       13.13397328328250   11.69299070979948    3.90408847995099
N         9.16111782162819   10.27285349577926    2.84229317615984
C         8.25825845841586   11.25176801369324    2.41808755689032
C         8.39969005649967   12.58590484494477    2.78661573557594
C         7.48074607604282   13.51831271527695    2.34101595593453
C         6.42506066739166   13.13772638168168    1.53003966662300
C         6.29322455426162   11.81023691926366    1.15577364862079
C         7.20204305222208   10.86785596213787    1.59481582100761
N         9.15465085879526    9.04868926508074    2.24803359817230
C        10.07919099773106    8.32110988547278    2.80257092305551
C        10.25072229283507    6.92357230187323    2.32105735553469
C        10.75411320530778    9.05586148747238    3.83702477673545
C        11.75526384884475    8.73063930534121    4.77148410298980
O        12.15160435372324    9.52020996574011    5.66438271238452
C        12.41952220399000    7.37448919113503    4.78087074303988
C        13.87515870564210    7.44312202741239    4.25068800412997
C        14.76690534154408    8.18966495871082    5.24219438956403
C        14.37866757123594    6.00501451936173    4.09294114020892
C        13.92433380704530    8.15740941306240    2.89971462274637
C        10.10923803225427   10.33747952002702    3.82098251450523
O        10.26394182378365   11.35857006583589    4.54810420093364
C        12.99380476282314   13.24565371750407    6.76246502076133
C        14.13416230598430   14.04420864185434    6.21822127983151
C        11.60327481582476   13.55700034634580    6.63362257067255
C        11.03414408272787   14.77418636738755    5.97542995170175
C        10.85940488842749   12.63839929153284    7.46923849243159
C         9.39086449780093   12.74294653390221    7.72330601114145
C        11.77519147960998   11.71649851599805    8.02626395256703
C        11.49602674877377   10.62954952848852    9.01247885472832
C        13.09917431478628   12.05562565924766    7.54732508272664
C        14.37256803011704   11.42346303662270    8.01293003750749
H         9.22754976277970   12.88657556804907    3.40724116868039
H         7.59491821134509   14.55401706401988    2.62681445051469
H         5.71131965915109   13.87227390732130    1.18764506272385
H         5.47587853928211   11.50680730051561    0.51817470830968
H         7.11956973780574    9.83182156936054    1.30891651815089
H        10.00438406318003    6.20818102195441    3.10527368833222
H        11.26801620822673    6.74266294166220    1.98170421330235
H         9.56959604137901    6.77239222614484    1.48738237538250
H        11.85045740995879    6.66513762997346    4.19004086324477
H        12.45364477176024    7.02731243683906    5.81634354207593
H        15.78733058855174    8.23063383798453    4.86812502614579
H        14.77322970905549    7.69087857841427    6.20985880515347
H        14.41390475463385    9.20944272649490    5.37596957756306
H        15.41264235364193    6.00564610482289    3.75604551267045
H        13.78312110940884    5.46325686632752    3.36092649592946
H        14.32831607366412    5.47087610707041    5.03970149703324
H        14.93651302017576    8.13017523479561    2.50223534503800
H        13.63235448089096    9.19959119976424    3.00341528728023
H        13.26409895061782    7.68291150085167    2.17781483752235
H        14.45556445820214   13.65515172988922    5.25110242444633
H        13.83680857040111   15.08197475001707    6.08695878386827
H        14.97886890334533   13.99972363414101    6.90279762572483
H        11.05466938199050   15.61423105884997    6.67313825742820
H        11.61183201305048   15.04020320917422    5.09312096122630
H        10.00318981924194   14.60213677300669    5.67579498870843
H         9.17685484402122   13.67740267418651    8.24402253538836
H         8.83826707932599   12.74308404807271    6.78446785771550
H         9.03453024386271   11.91554282466927    8.33110334736072
H        11.98337563696983    9.70412684806550    8.71039296659434
H        11.88737613048815   10.91597992460011    9.99009986096119
H        10.42945136854241   10.44227064811229    9.10510381046058
H        15.16458105191004   11.57415241760227    7.28346561501035
H        14.24025939637898   10.35461128041977    8.16282451732759
H        14.67958184335308   11.86842085236195    8.96176465397691

