54
CSD_code = QAVROV | q = 0 | S = 0 | Stoichiometry = C22H26ClIrN2O2 | MND = 8
Ir       -0.89106571677449    3.97346097494986    5.42033175289707
Cl        1.00259260558411    3.26411148610355    6.57811793719807
N         0.11446654973607    7.20529802123155    8.02825264745597
C        -0.64378034933476    7.27171490708241    9.20133962661335
C        -1.65175264237380    6.35312434193580    9.47621412003191
C        -2.37193242631850    6.46130395545470   10.65196664591848
C        -2.10128252453726    7.47402121758379   11.55626613959112
C        -1.09463794220989    8.38534878623769   11.28114765591492
C        -0.36678174334773    8.28963763117441   10.11162053650441
N         1.16517140377990    8.05623453070989    7.86241673358052
C         1.71020334271457    7.80876757885474    6.70780224894300
C         2.90689321984010    8.57738508987730    6.27927327529511
C         1.01305130326963    6.75073613616372    6.03521952575032
C         1.15939274972475    6.16831983793815    4.76420684839795
O         0.46654296428813    5.20930190304173    4.34656981308737
C         2.17516158775002    6.72252265504168    3.79797930257259
C        -0.01866268661002    6.37576297692255    6.95436604693979
O        -0.94207143760737    5.51531956349362    6.84720131883233
C        -1.52943977650682    1.96678858944135    4.76242190571365
C        -0.72136803810442    0.71107454853958    4.74035193785792
C        -2.32595854235549    2.40176834073412    5.89044528777811
C        -2.48133599634978    1.62235383840904    7.15596862842911
C        -3.11258467036993    3.52240034753963    5.46446722114812
C        -4.17445138568119    4.21223441729558    6.25296109469573
C        -2.73361752449550    3.84850326471055    4.13523220887059
C        -3.37487165697680    4.88050653493572    3.26804180433056
C        -1.76045588501232    2.87646523125993    3.69527185592453
C        -1.22492736862150    2.78823752058045    2.30442802988170
H        -1.85970454914771    5.56080793633968    8.77729359679422
H        -3.15217919370339    5.74452355472354   10.86324111253550
H        -2.66946011188111    7.55127918206839   12.47133921783238
H        -0.87445004488240    9.17626019774139   11.98294595667920
H         0.42299793911211    8.98645755544106    9.88325964007170
H         3.18948420762145    9.24909587557066    7.08508510615072
H         2.69744347495171    9.16457797096419    5.38696069469402
H         3.73672504591261    7.90673830738807    6.06650167115690
H         2.08499252189472    6.19768847232041    2.85048917403653
H         3.17424612848134    6.56775706955447    4.19715969845854
H         2.02077115991427    7.78708808843084    3.64613360689055
H         0.04335325705440    0.73950977337527    5.51529377864339
H        -0.23137396775527    0.57561723080011    3.78056486472417
H        -1.36923306028775   -0.14502061437971    4.93007820409879
H        -2.86381852825248    2.24735026031171    7.95845569810070
H        -1.52145530555036    1.21698031798390    7.46648490746690
H        -3.17371059421156    0.79280687553043    7.00061682624993
H        -4.13806649157076    3.91811556814583    7.29781275931914
H        -5.15528776801076    3.95193079386082    5.85205820056819
H        -4.06076558310415    5.29315623926007    6.19740587652335
H        -4.19731087025328    4.43548621308715    2.70441901950735
H        -2.66003727508786    5.28858299656788    2.55718494964200
H        -3.77399223876719    5.69580634100031    3.86657320667618
H        -0.33865111167626    2.16120478573500    2.26592920896211
H        -0.95998364263966    3.77561073257896    1.93265356007275
H        -1.98323081126083    2.36618404833989    1.64267731400059

