64
CSD_code = QAVSAI | q = 0 | S = 0 | Stoichiometry = C28H30ClN2O2Rh | MND = 8
Rh        2.04949792280661    6.01428291183760    5.76640494267644
Cl        0.51604234364846    5.51859863296002    4.15548553060091
N         2.86299593895941    8.70526501761851    2.57126411313708
C         3.86988151555845    8.28233015411837    1.69845994962447
C         4.43810984841079    7.01636592142766    1.79828162146024
C         5.43248366087330    6.64340022508767    0.91250796989851
C         5.86466526794143    7.51520968004362   -0.07251805370373
C         5.28897748521989    8.77121103521038   -0.17589153237112
C         4.29648623170363    9.15823058583359    0.70283732094164
N         2.15045208736731    9.82940484459037    2.28353485648415
C         1.28908845773868   10.01809540003489    3.23988563152428
C         0.33939210997085   11.15902040149655    3.16852730160339
C         1.40081725721972    8.99044049108098    4.23327994761891
C         0.75002344794198    8.76263856581034    5.45681927524860
O         0.88621559400324    7.72439440031811    6.13885987604534
C        -0.15946656150993    9.83505583792254    6.04953878367082
C        -0.38269743333691    9.54931917076938    7.50705096711530
C        -1.29176038947660    8.57390555004368    7.89754620521726
C        -1.43964326904383    8.24804907957961    9.23385675488436
C        -0.67908641310416    8.89247793793650   10.19570858232966
C         0.22928885888783    9.86466866187131    9.81401876662638
C         0.37872193400160   10.18782922374733    8.47618463260476
C         2.44326527202579    8.13968308711355    3.74061934569464
O         2.99197783122419    7.12355388758911    4.25291577795636
C         2.04586165486724    4.00269980052436    6.61663453744045
C         1.22314729617880    2.82244505639543    6.21204953348637
C         3.33556908018517    4.34001485074591    6.08431437000154
C         4.10619398197981    3.52496628325301    5.09409366363387
C         3.87399788320995    5.42802711295022    6.87271091335609
C         5.26316393428419    5.95795798871486    6.72617628196414
C         2.88193145503153    5.82887568951997    7.79564629424031
C         2.98039202408199    6.87480963770751    8.85807225271162
C         1.72580987597846    4.97243730444679    7.61201571574718
C         0.51095980761631    4.99425381354555    8.48314095044521
H         4.09536802727153    6.33149513799933    2.55630604553866
H         5.87033354027034    5.65883865431922    0.99108724031692
H         6.64286954745292    7.21606770458277   -0.75892838382209
H         5.61618506012993    9.45457639938833   -0.94568530257392
H         3.83221168413359   10.12863750463817    0.63391790727609
H        -0.68282669395625   10.81778614229112    3.31470995913170
H         0.56802817768147   11.90659081544092    3.92708574201468
H         0.42772712076601   11.62051965532511    2.18902673179126
H         0.29469462743617   10.81467657042235    5.90688494068581
H        -1.10411415813807    9.80296436072167    5.50199984221968
H        -1.87421254702927    8.05924550870273    7.14779822930627
H        -2.14779850633545    7.48629392561268    9.52656079561094
H        -0.79216369526366    8.63597311750777   11.23892743475406
H         0.82700604272532   10.36982735899094   10.55899633151234
H         1.09645608576326   10.94150737918453    8.18307983849234
H         0.65804941982293    3.03852629009060    5.30433315434539
H         1.87210977637483    1.97072496082949    6.01641037032847
H         0.52060722823449    2.56094664890483    6.99942727176337
H         4.86094439027977    4.13197529450927    4.60029911569591
H         4.60651861507292    2.69994090245662    5.60583271194333
H         3.44131574553649    3.11279766631279    4.33852799900677
H         5.44012427977057    6.79275084908018    7.39898265224963
H         5.43881537259237    6.29462894208034    5.70497947108105
H         5.98009987674787    5.16755184516177    6.95193050959180
H         3.06000970496986    6.39579884417834    9.83534443645722
H         3.84971526569501    7.51016704182067    8.70917472168400
H         2.09027698840914    7.50316324446946    8.86234926353470
H        -0.32129056593341    4.49185371013202    7.99680053694549
H         0.72531484508015    4.49120302711581    9.42823515458951
H         0.21496875202346    6.01925225584524    8.69927219861959

