74
CSD_code = QAVSOW | q = 0 | S = 0 | Stoichiometry = C34H34ClN2O2Rh | MND = 8
Rh        1.70115543796683   -0.13843704465022    8.54163998616666
Cl        3.64240572247270    0.56292716835495    7.52636911317465
N         4.78261418480789   -1.37201762297469   11.19476443278072
C         5.14013987543606   -2.71964337918400   11.08976196793925
C         4.59704918000207   -3.54788988069799   10.11307682978900
C         4.98285391653237   -4.87448382866629   10.05196752367599
C         5.90411908832491   -5.38490633183827   10.95037990336354
C         6.44945868618888   -4.55529684805052   11.91646880138026
C         6.07302646792624   -3.22885308842994   11.99043066747569
N         5.49263445350706   -0.55150714233689   12.01823220786088
C         4.97513817290746    0.63960229115120   11.95192589269491
C         5.58340804479569    1.74022256623872   12.74235496789898
C         3.85494737891083    0.65556911892240   11.05400112742090
C         2.92360378123866    1.63767471882245   10.68012657208233
O         2.01087489326552    1.45607920048854    9.84284281347629
C         2.97356354211161    3.01852202449232   11.32964102678689
C         1.64939131627241    3.72316416898845   11.14381698803047
C         0.77308644518746    3.86456060205311   12.21035333264335
C        -0.45108641037066    4.48722318298498   12.03684782385281
C        -0.81193641996453    4.97172469163422   10.79189606373127
C         0.05714745816641    4.83035573955288    9.72272626324419
C         1.28103666066655    4.20998203035979    9.89562313172199
C         4.08581656518448    3.85316845331893   10.72921566492431
C         4.61967382937955    3.57968703815827    9.47712398922140
C         5.60881778604904    4.39433290588066    8.95155128051539
C         6.06624248761105    5.48910869518309    9.66294290248918
C         5.52958963701237    5.77131233690557   10.90825383281086
C         4.54522316024911    4.95796045751478   11.43782526020180
C         3.77962016086136   -0.69223001045052   10.57036878882862
O         2.95353917331288   -1.24558719800205    9.79020741755431
C         0.38989800008749    0.17006809159084    6.85638298444049
C         0.56845450022453    1.08525975892307    5.68801891169069
C         0.84017633618651   -1.20702704135231    6.88644882393960
C         1.51831671288338   -1.89232095704170    5.74339175416185
C         0.33902452795974   -1.80398883520966    8.08251366011286
C         0.46294889937086   -3.23378939699028    8.49601288062956
C        -0.36373031073276   -0.79954158170077    8.82231134818459
C        -1.16134701119868   -1.02301518768576   10.06675492474121
C        -0.36250287626281    0.40748340856265    8.04112135951103
C        -1.09887131654854    1.65151849598620    8.41707975833791
H         3.88656813605702   -3.15206975552674    9.40673924482010
H         4.56006642470164   -5.51455200107449    9.29199076108790
H         6.19790414737532   -6.42255473024134   10.89627332580344
H         7.17224305369280   -4.94466043838355   12.61846791370852
H         6.49009989303248   -2.56685477259764   12.73164484243044
H         4.90776394332827    2.07773316126778   13.52754681845722
H         5.82323018676742    2.58703943231229   12.10333399162519
H         6.49237362953673    1.36544197668017   13.20477050356395
H         3.16028142966525    2.88937237389688   12.39919020837703
H         1.04689094228620    3.48459809317153   13.18533133084959
H        -1.12367346825194    4.59297615161171   12.87579268981878
H        -1.76696461244522    5.45766923153357   10.65545083873552
H        -0.22078598581888    5.20714082572932    8.74907519703389
H         1.95462259319095    4.09640235624116    9.06015490936269
H         4.27760912926766    2.72999587869006    8.90495756983742
H         6.01971608961679    4.16620152249406    7.97975561842643
H         6.83746812025771    6.12253741893774    9.25017790388625
H         5.87936356795159    6.62555411670991   11.46929182501647
H         4.12693721243984    5.17989270148548   12.40963503584622
H         0.27890563499956    2.10252434035931    5.93681021005742
H        -0.04410156340244    0.73674966731558    4.85491400301046
H         1.60882659926966    1.09559288788844    5.36783318166843
H         0.79169673504641   -2.08730902534041    4.95260903376438
H         1.95916573418582   -2.83622867068418    6.05289041140550
H         2.30738006924659   -1.26338468743435    5.33625045606082
H         0.83440761077384   -3.31059888877561    9.51640700262150
H         1.14155857894133   -3.77506957127832    7.84318626151770
H        -0.51779456831122   -3.70890845637631    8.45301202721602
H        -0.71372496740563   -1.80099870208136   10.68076595554540
H        -2.17422826495420   -1.33539886743027    9.80333967845788
H        -1.22709826512806   -0.10865517494832   10.65218809591170
H        -0.73563497496471    2.04737267488888    9.36521966416766
H        -2.16032910825693    1.42609478390739    8.52485977910515
H        -0.97866582055681    2.42268237626204    7.66176073134692

