68
CSD_code = QAVSAH | q = 0 | S = 0 | Stoichiometry = C30H29CoO2P2S4 | MND = 6
Co        9.56202371173685    1.18557029821740    4.01300249231651
P        10.30651742464991    2.54762261769606    2.41453320569182
P         8.48390650056877    2.88037602619533    4.87592460865296
S         7.49009011342459    0.71837053085347    3.22427655247165
S         8.63838195404222   -0.05932543121401    5.66213749890714
S        11.69783065848824    1.32120287665256    5.01252957131046
S        10.82024136052661   -0.53921023278345    2.99456998972838
O         6.11945580956353   -0.59567158423297    5.06839469283006
O        13.26447905529708   -0.44369911397228    3.80343354496163
C         8.35328173800880    4.07856922724211    3.48213294390610
C         9.75702429949854    4.24173018293606    2.91107725342764
C         9.71164547479868    2.42432021589965    0.69964715819982
C        10.05490856708733    3.41857173001823   -0.21471548038250
C         9.63516366221531    3.32188601124670   -1.52676272698990
C         8.88071170326653    2.23289247540609   -1.93765544010188
C         8.55900055977316    1.23305654933064   -1.03672306599701
C         8.97725391080418    1.32303803178501    0.28020913715317
C        12.09402167197997    2.68243556556311    2.11669190737855
C        12.65274639651543    1.79098080115630    1.20196062234976
C        14.02086999152995    1.75538213804397    1.01041282859761
C        14.84391400371315    2.60573934864891    1.73093978952461
C        14.29421098414516    3.48708743444735    2.64797908602286
C        12.92618704324343    3.52064348458256    2.85150065233291
C         6.82072421141933    2.78785711029245    5.58705117330661
C         5.68711418883753    2.97213613532770    4.80087502977347
C         4.43203057174893    2.82097025041326    5.35965426898941
C         4.29827739085339    2.47445989024616    6.69382159879069
C         5.42487487509405    2.28601003693222    7.47666284687409
C         6.68400121322279    2.44070172787019    6.92857674201554
C         9.38881987069955    3.77429932831656    6.18097265657487
C         9.44187485387779    5.16226053019774    6.25962200617994
C        10.11977848719788    5.76913137205231    7.30179968664590
C        10.74212457248944    5.00258213651983    8.27323855763496
C        10.68337680214558    3.62056223911034    8.20506047227073
C        10.01120348683929    3.00815920536236    7.16375681700690
C         7.15816806140880   -0.10492862430193    4.74367052863527
C        12.06132823880678    0.06856586938654    3.94453450784110
C        14.32709930086352    0.09747150567649    4.58287509099637
C        15.62591336047277   -0.51056539668785    4.09043033953241
H         7.70449326701738    3.61718257531581    2.72872128095754
H         7.90656006610604    5.02292591678964    3.80471182186562
H        10.43270959258888    4.61113248343066    3.68840772490412
H         9.77642238070663    4.92488971681814    2.05805335978987
H        10.66508808474139    4.25584937684752    0.09795675341775
H         9.90065763247394    4.09422804880387   -2.23377491622665
H         8.55310414435364    2.16312174636243   -2.96436652438425
H         7.98332600785802    0.37806408385112   -1.35707955102225
H         8.73523479036875    0.54158896039147    0.98490180681420
H        12.00660660210638    1.12022572737840    0.65153169729395
H        14.44493897594099    1.05800600932166    0.30328821548761
H        15.91376004729759    2.57687561837485    1.58543455583828
H        14.93530503786988    4.14333395281866    3.21851045600016
H        12.51497880207942    4.18480255594719    3.59771841265980
H         5.78175191984705    3.20454513977594    3.75066924281506
H         3.55510214225647    2.95580254763328    4.74408117122770
H         3.31552148270021    2.33860316307818    7.11973690493820
H         5.32415403173913    2.00290733766803    8.51375222665168
H         7.56435148911807    2.27583081888602    7.53348558073419
H         8.95303464932771    5.77752725041567    5.51845481385584
H        10.15974212544991    6.84758242634755    7.35581302731913
H        11.27083052259976    5.48391158031942    9.08259324676550
H        11.16428024200441    3.01851610574995    8.96133965189348
H         9.97097950256082    1.92891476100955    7.10066692427684
H        14.14823725399342   -0.13887540174599    5.63856849422641
H        14.32992039258604    1.18896259182112    4.47047311945318
H        16.45394968063805   -0.12436143949549    4.67708311149950
H        15.77862524386861   -0.25883259403995    3.04455759437833
H        15.59145780879402   -1.59190356005974    4.18781065094201

