74
CSD_code = QAVWOB | q = 0 | S = 0 | Stoichiometry = C31H28Cl2F8N2O2Ti | MND = 6
Ti       -0.87086353420176    1.99192590746391    4.83181035679752
C        -1.33926904224223    1.25949305164659    7.60131330147173
C        -2.43820794779707    0.35535678048015    7.46038185161266
C        -3.02229920625563   -0.22162655809942    8.60484375578793
H        -3.84075149137588   -0.91552046113745    8.48297267392453
C        -2.55644263014437    0.10644254157763    9.84689408782936
H        -2.98339451548699   -0.34282015775692   10.72986543526504
C        -1.55301708250136    1.07141488929138    9.98421255633300
H        -1.26080763290045    1.34430560087957   10.98466161177600
C        -0.94923465632720    1.68210339561503    8.90477093752204
C         0.05136786530950    2.81948897012819    9.05973222102986
C        -0.53030980958896    4.06535969667406    8.37208583851632
H        -0.66869236078879    3.90437193236405    7.30192124439218
H         0.14856453395232    4.90522781553889    8.49930339415696
H        -1.49264079752838    4.32651982812929    8.80869291670735
C         1.39126899393716    2.44917925339264    8.41217098325816
H         1.28624124338346    2.33953302990860    7.33433377698870
H         1.76879662345072    1.51677432682650    8.82770962492185
H         2.11771986940195    3.23613134665065    8.60072251647398
C         0.31200694018622    3.16401216712178   10.53013462724559
H         1.01313965319272    3.99365247980567   10.58012769306873
H         0.75192289325981    2.32270285896634   11.06109664627834
H        -0.60213624601072    3.47115577215503   11.03249688233535
C        -3.02333968880526    0.11704275890683    6.19263114490713
H        -3.95423038330663   -0.46004040882421    6.20702683284862
C        -3.34015414124168    0.44932704091763    3.91447863021341
C        -2.79022220385484   -0.04869066802134    2.72830443311934
C        -3.48881781132908   -0.04233925365407    1.53210956747088
C        -4.78149897389197    0.47726273772995    1.49320005430263
C        -5.36057670637444    0.97173745943227    2.65954393544480
C        -4.65158989941776    0.94520041437232    3.85476380266297
C         0.89318378808952   -0.27367384252251    5.44063680006046
C         2.06494191539906    0.01500950725212    6.13845009587758
H         2.70460466260475    0.81822252341772    5.79858393965630
C         2.38548548115151   -0.71208179137437    7.27072921361130
H         3.29907492671583   -0.48889435679116    7.80076443392646
C         1.54698023803204   -1.71744844878335    7.72103732383482
H         1.79998190643735   -2.27786906459455    8.60794665119745
C         0.38493668510942   -2.00804501512258    7.02500791016404
H        -0.26612433809325   -2.79933578763922    7.36560699371804
C         0.05651950331213   -1.29610789805261    5.88695889024002
H        -0.83017832411603   -1.53988410486534    5.31767389444755
C         1.15662240692773    0.53464444601816    3.21437465149983
C         2.32962606423013   -0.42419327960329    2.99728831414203
C         0.85890094129120    1.38363488496292    2.13787765783336
H         1.52336096134601    1.38497600856503    1.29259657634974
C        -0.28881635462293    2.16850781075731    2.12443550199419
C        -0.59259801319555    3.18412424534971    1.03215749610131
C        -0.47492650353563    4.55236220400077    1.72909409728720
H        -1.16430699318149    4.60759677709383    2.57377375000196
H        -0.71516031344363    5.34610991847298    1.02581513341205
H         0.53633200565008    4.70484695604774    2.10221709940232
C         0.36222864470006    3.11747462186626   -0.15672724688536
H         1.38078820651339    3.34492273160948    0.14604794249942
H         0.05962702866279    3.85356571954585   -0.89804676299236
H         0.33766213348347    2.13591924374536   -0.62415509346103
C        -2.03752336876054    2.98149980087264    0.55700887756939
H        -2.13440855909780    2.03538234865627    0.02866885311442
H        -2.31954047562262    3.78338642016055   -0.12034537723779
H        -2.71693211763308    2.99098125074439    1.40882858534142
Cl       -2.49828662278850    3.52126153665153    5.11004873912253
Cl        0.81604643962195    3.43029884638331    4.76875640597052
F        -1.54623393727880   -0.55932937276064    2.77889316750786
F        -2.92804212785245   -0.52489695282048    0.42108220172320
F        -5.45994231674507    0.49608781677131    0.34580561230586
F        -6.60083809514638    1.45684250303411    2.62769512059911
F        -5.21753088082525    1.42626061672776    4.96447289800770
F         3.47252916402677    0.03203867618715    3.53416245715718
F         2.58728442793028   -0.62871443489690    1.69877515994998
F         2.11228409784980   -1.63769598405916    3.52392415149466
N        -2.56305198013089    0.53229120436620    5.05298456114766
N         0.50364600706424    0.51133196153709    4.34179178626538
O        -0.75658958878920    1.68672307429556    6.53046302253934
O        -1.15384858000429    2.08008213030910    3.06022517883404

