70
CSD_code = QAVXAM | q = 0 | S = 0 | Stoichiometry = C23H34AsBN8O2W | MND = 6
W        15.72477913446612    6.59451547332312    0.46198558522627
As       17.40883215082730    5.20471613074829    3.52546102698459
B        15.75080254961325    8.34481899440054   -2.29484283956801
N        14.57018978599654    5.83595963445015    3.85393319407811
N        15.35215899661628    4.06522965007399    5.09066924901845
N        14.03370087345227    7.22583152842823   -0.82835783097868
N        14.30147934053901    8.02144757413897   -1.87764598407103
N        16.38430426080173    8.68245909032064    0.09935689375663
N        16.40756855141837    9.13311870446714   -1.16187962342912
N        16.49812948524512    6.11330500826142   -1.47017578457990
N        16.48037484572657    7.01207959829747   -2.46014904771272
C        15.19247533164879    4.79542201116178    0.97640466258161
O        15.05727111110116    3.80255038137623    1.57432833196031
C        17.90683977699628    6.39317970573366    0.87005181680764
O        18.84365262102100    6.65439438655418    0.17470526822784
C        17.17049609266142    6.12618048984473    1.93615520990104
C        15.64456223641309    5.04321847488822    4.17160262512668
C        14.73929553242299    7.13272459550656    3.28378626815388
C        13.24314319265688    5.27882974822091    3.71776262528812
C        14.53551029725950    4.34592683555008    6.25226389031647
C        16.29350609588057    2.99720706712403    5.29973112957827
C        12.71192992728276    7.06072721461788   -0.77250786233058
C        12.11478744505215    7.78180309986675   -1.80608756409436
C        13.15972568526242    8.38107926507194   -2.48827206795376
C        12.03865899406931    6.20893600716144    0.24481153766692
C        13.08827680766734    9.26934789850281   -3.67732240972282
C        17.05776572246431   10.31043158332931   -1.22821346255714
C        17.46580069744038   10.62678283275032    0.05267674534938
C        17.02276743660903    9.57276223575414    0.85533383306727
C        17.27220953814214   11.07934321566560   -2.48167761020268
C        17.20509334198058    9.44820138391459    2.32829572707359
C        17.13742541423753    6.52604534317109   -3.53185910489126
C        17.58638224411357    5.26209391885772   -3.20170007424545
C        17.16327253411560    5.04119387361295   -1.88813777811698
C        17.31279407658172    7.26742910160398   -4.80829783295337
C        17.36868149904269    3.82063401487541   -1.06325790117254
H        15.75944630680459    8.96272010241151   -3.29886891031690
H        15.64199696503108    7.58575817480407    3.69814375803634
H        13.87395317574942    7.74929747937975    3.54541868782692
H        14.81721065097448    7.13264050373533    2.14804546935444
H        13.26206642816834    4.21705417189574    3.94378453214509
H        12.90418677767583    5.40044860745526    2.68774625411786
H        12.53156313540678    5.78180230828391    4.38057246671587
H        14.07159336388473    5.32418652536664    6.16727611146777
H        15.16117364468501    4.34285924053693    7.15193377517252
H        13.75651339468035    3.58881032516684    6.37414307178299
H        16.65459373417715    2.64080334846732    4.33363798695083
H        15.78783000804573    2.18100431118374    5.81589262920673
H        17.15762330517087    3.31715485713528    5.89988213033118
H        11.06922687409697    7.85258277528849   -2.02792801595305
H        12.68533460147324    5.37065161360756    0.50391030719695
H        11.10199315226621    5.82713229833847   -0.15484970616284
H        11.81373975552900    6.78600764982086    1.14327775902945
H        12.04764034688571    9.42889309634683   -3.94749384264511
H        13.60737810840269    8.82238626871293   -4.52339669537239
H        13.55108419909388   10.23209728204344   -3.46778425837507
H        18.01415721532160   11.49195018389358    0.36648590128759
H        16.32283781381334   11.34374206802017   -2.94510578301408
H        17.84600765292170   10.49245825594667   -3.19686889378835
H        17.81989381969919   11.99070292749412   -2.25597602378135
H        17.55229078367923    8.44521635722200    2.59055656510947
H        16.27000519784684    9.65571816258390    2.85253617098003
H        17.94935611319024   10.16874512843141    2.65919443699724
H        18.14954590251023    4.59278772579092   -3.81987571267385
H        17.84450994493811    8.20236553840193   -4.64009739611615
H        16.34883340896666    7.50231683681801   -5.25732851613251
H        17.88529747813188    6.65843700928620   -5.50269795789582
H        16.41009799875175    3.36912284661380   -0.80759659618844
H        17.88668032337115    4.06230486603163   -0.13411654681677
H        17.96239479148493    3.10021508224834   -1.62018399947189

