79
CSD_code = QAVZUJ | q = 0 | S = 0 | Stoichiometry = C35H30BN7OS4Zn | MND = 4
Zn       -2.12627770481956   -7.76525328415537   -4.13819892581814
S        -0.51637216569696   -7.59129374027262   -2.18427455834770
S        -3.44980180250920   -5.63176647935864   -3.80177346305982
S        -0.59593775667144   -7.08246094389428   -6.04701843580272
S        -2.88148347377101   -9.94330873226359   -4.51802413055236
N        -1.63262948135856  -10.96374590358414   -2.08158196250023
H        -2.57840270100889  -10.80528685152269   -2.42868276065984
N        -0.85207025207882   -4.87530955375429   -2.41024494216484
N        -1.66338578374281   -5.76846140591834   -0.58187842413788
N        -1.25563727293009   -4.37385410855652   -4.86540440491494
N        -3.00702010786084   -4.45349583590323   -6.17867723511711
N         0.79709816630180   -5.68246362251916   -4.14942933432374
N         1.80534445429105   -7.47767600779780   -4.90172888425889
O         0.51879178897981  -11.02558235878056   -2.86009776314635
C        -1.24496324004384  -10.74135504868648   -4.44013340835475
H        -1.38847633257627  -11.74013254717711   -4.86057533731013
H        -0.53044425957842  -10.20935322772285   -5.06974291064080
C        -0.67645200595099  -10.90512587467433   -3.03546059894982
C        -1.00807997478562   -6.02849149232271   -1.73832405835867
C        -1.44079774291033   -3.88370574661521   -1.66940355406865
H        -1.44880337039643   -2.87100299474657   -2.01348825352870
C        -1.95085266619127   -4.42803938169682   -0.54398699882912
H        -2.46890938197105   -3.98641322350757    0.28141698456811
C        -2.52428947399341   -4.80272553059839   -4.96295755512877
C        -0.93785181162597   -3.75630347633294   -6.04681770996141
H         0.03323256607671   -3.33658116202739   -6.20457469300560
C        -2.01004260115080   -3.81059565747209   -6.86601388092841
H        -2.15912718273559   -3.43921851033538   -7.85827697994788
C         0.68774420172964   -6.72076698047425   -4.99517793606556
C         1.99998645545288   -5.80689129122117   -3.50298033350138
H         2.30606394503367   -5.09231771878873   -2.76816015607553
C         2.62220172416695   -6.91705313120982   -3.95506919513616
H         3.56797895655818   -7.34831145283379   -3.70203843949325
C        -2.03560462991640   -6.70374382197464    0.40671981726326
C        -3.34790273998338   -6.71800425210234    0.86124101175380
H        -4.07165506794597   -6.04421480117078    0.42711575534829
C        -3.71541587133239   -7.61194825265378    1.85037974496621
H        -4.73602939013956   -7.62812789888202    2.20203882017034
C        -2.78045333530430   -8.48372224008532    2.38286107941927
H        -3.06881881745050   -9.17844654213270    3.15642817245533
C        -1.47541508808674   -8.46850135388987    1.92133717296504
H        -0.74807250657976   -9.15181192535568    2.32994564303491
C        -1.09608764109265   -7.58061419414655    0.93185907455766
H        -0.08204189042390   -7.56459513464748    0.56591827435724
C        -4.26633688421314   -4.79782012032393   -6.71534105127997
C        -5.43252401915971   -4.52460670801556   -6.01449181341281
H        -5.37964119355365   -4.04579408337886   -5.04974085680362
C        -6.65164597510356   -4.88157865380101   -6.56291756395774
H        -7.56024446910334   -4.67644486144078   -6.01769222652920
C        -6.70779116537448   -5.49756340015266   -7.80154070630933
H        -7.66169588647545   -5.77581338679079   -8.22340746863660
C        -5.54011587406562   -5.76393323848198   -8.49764898049034
H        -5.58069586349259   -6.25212351640114   -9.45951307385027
C        -4.31538341947001   -5.41779989975502   -7.95773319027556
H        -3.39695499252707   -5.64514457976283   -8.47806285333755
C         2.05227763695524   -8.69991600667859   -5.56599312522540
C         2.44067613004304   -9.80313616188370   -4.81676555959456
H         2.51799564754321   -9.72933532352532   -3.74394133008032
C         2.66486276886497  -11.01001727563264   -5.45318836279964
H         2.94460945333147  -11.87077928876538   -4.86671548316617
C         2.50591457411062  -11.11517548336522   -6.82496937439736
H         2.67404786437357  -12.06141432709975   -7.31722521253982
C         2.12588804895306  -10.00886181262984   -7.56659203675074
H         2.00115740333664  -10.08833246825379   -8.63594069962453
C         1.90060980905307   -8.79463208546508   -6.94302350181237
H         1.60093888672735   -7.92921972194728   -7.51272920656616
C        -1.52147973954918  -11.23876730637460   -0.72250130515246
C        -0.29934631226947  -11.45404943155248   -0.09230695038385
H         0.61059067099120  -11.37286745297967   -0.66266649464318
C        -0.26897272641416  -11.78132392147586    1.25074841008457
H         0.68306730052734  -11.95581608057296    1.73150153817014
C        -1.44109761978386  -11.89426346828849    1.97954460878214
H        -1.40858796573488  -12.16073404052026    3.02593490796875
C        -2.65668976093339  -11.66128983181940    1.35721324485306
H        -3.57770435039445  -11.74428916628236    1.91585495487529
C        -2.69949952498741  -11.33227233314665    0.01725400955448
H        -3.64745830982745  -11.15428017053438   -0.47081629567852
B        -0.19060063948531   -4.56342149478965   -3.76689517741031
H         0.41949376312272   -3.54530920416106   -3.65965610005813

