77
CSD_code = QAWBUO | q = 0 | S = 0 | Stoichiometry = C29H43N2OPPt | MND = 4
C        -1.54649067458946    5.81444711724737    8.10035325950277
H        -1.78376492989178    6.32606796479935    9.02154777789501
C        -2.56154208982056    5.34346177811890    7.28817084511464
H        -3.59330468919633    5.48184564873757    7.57152528085127
C        -2.21095159479162    4.70076528154292    6.11129974611450
H        -2.96720289718928    4.32039156699408    5.44124172288566
C        -0.87195515520940    4.54439374436567    5.81089558312174
H        -0.56073757157470    4.05015550763108    4.90619470844532
C         0.09662618665652    5.03836084040660    6.68729301262954
C         1.53622870428631    4.85701680010527    6.52012916508735
C         2.34062807278684    4.99628457898695    7.66830120859059
C         3.71276287425667    4.79286352367248    7.51549018122087
H         4.38163046894458    4.88640905661476    8.35567086429483
C         4.22992449529878    4.44912419241905    6.27736124778858
H         5.28674337165336    4.27398199094133    6.14306083472996
C         3.39317249793092    4.33313434240648    5.19559571726378
H         3.73307784307775    4.08313660987843    4.20238705611397
C        -0.39675402701975    8.68672981161829    9.92903897797499
H        -1.37015341603849    8.21965770721064    9.73068528667353
C         0.23398756804869    8.97152348790021    8.56411775218201
H         0.52896124771571    8.03428649278645    8.07670716595935
H         1.13243146375839    9.57720807324885    8.68117709522386
C        -0.75977069479416    9.74085228711083    7.69925381228648
H        -0.32269101921341    9.94692646995839    6.72030100731229
H        -1.65695009862408    9.13651977711668    7.54148489884614
C        -1.13729115985920   11.05347939464029    8.38427898095626
H        -0.25045690450871   11.68810559925306    8.45372002497904
H        -1.88021680909884   11.58609955524793    7.78710661468022
C        -1.68624280080178   10.80441394605879    9.78777008505158
H        -2.62457172519634   10.24811195999105    9.71668339359505
H        -1.90309914152942   11.75866107876853   10.27328158511048
C        -0.68718369854484   10.01034481494735   10.63133020385674
H        -1.09810526722286    9.84723961830901   11.62959875161723
H         0.22910620693650   10.59396008291977   10.72658013951984
C         2.01990704988154    8.13000289907005   11.65308421117555
H         2.53026728244446    7.26243093959311   12.08940145423614
C         2.95595563500196    8.69020341496011   10.58193459181190
H         2.55732276623709    9.62843392933922   10.19385414720164
H         3.03068241228641    7.97348121884179    9.75093571343312
C         4.32740128900329    8.96611318143478   11.18946187989668
H         4.75760007703094    8.03386237730669   11.56061714145610
H         5.00090986582379    9.36637618389647   10.42913812063898
C         4.19269061645986    9.96024279581333   12.34071166272980
H         5.16771378582095   10.13501986854971   12.79993879550316
H         3.83316258437720   10.91598525668975   11.95137774692721
C         3.21296962031119    9.44433720757077   13.39169362111677
H         3.10601264774446   10.18146337662708   14.19080159253889
H         3.61021588319657    8.52800476964067   13.83480451192085
C         1.84408451161833    9.15442370958110   12.77232620578522
H         1.42923636373780   10.08483969621076   12.38660263684514
H         1.17417996172599    8.78217135032025   13.54875028185025
C        -0.57638486023302    6.98821421400967   12.29793406475414
H        -0.75921150163838    7.92012168881095   12.84530032481071
C        -1.91532025303073    6.40744967678417   11.84336295122609
H        -1.72727014243977    5.50168513176590   11.25897107930725
H        -2.45064001612705    7.12308304068862   11.21485969549517
C        -2.79734348515536    6.05853531622947   13.04008860170440
H        -3.02155274738444    6.96938005750406   13.60152009887321
H        -3.74401126206124    5.64256904599042   12.68822781851796
C        -2.09588309227592    5.06079014587514   13.95404927498050
H        -1.92315745118308    4.12949854958133   13.41020466976608
H        -2.72685758547427    4.83471885912067   14.81592421637587
C        -0.76016740622494    5.63145181396587   14.41581368953644
H        -0.24334662436155    4.90833952656010   15.04995813266600
H        -0.93607100969875    6.53153949671477   15.01098781875614
C         0.11631074833629    5.97937146376262   13.21570797889584
H         0.32190129093227    5.07135758311630   12.64155393729864
H         1.06864690847368    6.37626584156746   13.57090855681194
C         2.85801507066758    5.10291175657057   10.53326325226541
H         2.49840624809791    5.07619320890300   11.56599523907422
H         3.77433740871279    5.69532012281337   10.51766628319298
H         3.12309236461881    4.07847034364736   10.25551966123413
N        -0.25811814052673    5.68445472643446    7.81721646346597
N         2.06494446552321    4.53924943885989    5.29815000499261
O         1.35822787234113    4.44876682439371    4.25164223451773
P         0.53732134204408    7.34286394271357   10.83459890216218
Pt        1.39027486875150    5.78434530646043    9.25820674683446

