70
CSD_code = QAWCEZ | q = 1 | S = 0 | Stoichiometry = C30H36AuNOP(1+) | MND = 2
Au        2.99326667873612   12.02177422628820    3.13963273244594
P         4.81441697544438   12.84264107177668    4.18638862470786
O         1.33210195526466   11.07723164957999    2.15868787177747
N         0.16408691572165   11.61282889183189    1.95887777772678
C         3.41579393608280   12.74350145376826    6.63702996967648
C        -2.19002154860581   11.40949089816039    1.54051242378136
C         4.58984730310590   13.11738244914551    5.97309194353871
C        -0.92602571124719   10.78868432545812    1.76331869871425
C         0.04127223484531   12.93171023598079    1.93871553309510
H         0.95645668633843   13.48004213965590    2.11093794062795
C         5.61960824069995   13.70907999526229    6.70932423274746
H         6.52438947272806   14.01402843434103    6.21016850973667
C         2.21731706400636   12.14552871198168    6.00206875298062
C         5.24472792111005   14.52865948170216    3.44200842198494
C        -3.33341436436267   10.61123598614290    1.34642697807181
H        -4.28026162820103   11.09887094688346    1.17667436743284
C        -0.17717816460439   11.05001663238336    5.09448261322479
H        -1.11136090133164   10.62495156193359    4.75725860542087
C         6.18305478830885   11.55407698924943    4.07676017310525
C         0.84589776071968   10.22359449347289    5.52699311264942
H         0.71079930562783    9.15238575452803    5.53069098266200
C        -0.83361232869872    9.37225684436088    1.78391245107317
C         1.18110933017402   12.97093570173438    5.56792619110190
H         1.30468545671198   14.04397086051980    5.61195362077319
C        -1.99181205845739    8.64734321373295    1.59034125714861
H        -1.93510924230983    7.56966734817842    1.60542253851273
C        -2.29080938593667   12.81571542472156    1.51750843901261
H        -3.25311711998132   13.27038308095618    1.34527731388842
C         2.03344976553342   10.76570570897195    5.98596969730167
H         2.81734757265031   10.11927426285465    6.35191514352337
C        -3.23341074388811    9.24855280843090    1.37293977146886
H        -4.10473235597823    8.63117205367673    1.22326109575828
C        -0.00725092023288   12.42464007466459    5.11633369630710
H        -0.81002143480128   13.07502788107922    4.79969760966152
C        -1.17096299543003   13.57342683947676    1.71554952209091
H        -1.19990997111572   14.65029192502191    1.70688380321891
C         6.51693187751525   11.35242449956153    2.59967239439845
H         5.60689593750985   11.23973394919585    2.00811591401345
H         7.11142016903711   10.44896779131982    2.47745485353452
H         7.09511493364320   12.18544255883229    2.20604498715531
C         4.94960413138375   14.44765540751112    1.94131663621935
H         5.61662429130845   13.75342023408733    1.43708523443870
H         5.08421892896698   15.42923850184242    1.49079465756188
H         3.92289908675494   14.12977495681302    1.75793855331308
C         4.34965376054807   13.53088809148050    8.72753494982366
H         4.24990471830586   13.68382942021467    9.79069853171739
C         4.24976317401310   15.49401062515113    4.09246984318806
H         3.23801805010025   15.08504185695399    4.04526064182291
H         4.25626377226932   16.44771944067072    3.56864474145043
H         4.49800228640674   15.67674375680728    5.13611597199963
C         3.31906981068237   12.95471268452107    8.01132597042843
H         2.40965706196925   12.65982014083334    8.51432229578043
C         5.50557482249107   13.91658610390445    8.06914476201707
H         6.31664362867925   14.37631452625068    8.61263028412442
C         0.44073574454219    8.62242490929922    2.00029757173132
H         1.16495994016983    8.86107130311968    1.22430533289013
H         0.24809262073116    7.55298154152285    1.98472389897937
H         0.89348538987000    8.88932878565977    2.95274936135757
C         6.67445801571838   15.03284612408643    3.61865048878665
H         6.94478600746393   15.16730757743797    4.66137167184623
H         6.75818205798383   16.00680353502473    3.13800133187745
H         7.39201671163869   14.36980654887493    3.14163442825183
C         5.53443467019428   10.28441703421090    4.63686102328501
H         5.25148066783960   10.42491954157546    5.67990075901136
H         6.23815273234649    9.45610333629145    4.58616418077933
H         4.64496529585648   10.01254721072502    4.06640301640627
C         7.45131156661672   11.84658360654330    4.87389283511118
H         7.91912380122147   12.78179858550396    4.58126651678081
H         8.16721714915020   11.04772599273926    4.68611324446342
H         7.25051869846093   11.86402946351183    5.94245069850242

