132
CSD_code = QAWKAC | q = 0 | S = 0 | Stoichiometry = C75H51NO4Zn | MND = 5
Zn       35.13948801854116   -3.19542896444554    6.50792705907758
C        33.26074746226810   -6.50684706017210   11.98230940643245
C        33.55105571934832   -7.27976913334199   10.82795288348174
H        33.77161176434781   -6.77425273600583    9.89964195772110
C        33.54272402706238   -8.64140893510424   10.87002667487472
H        33.76895748571560   -9.21332040341830    9.98125732838241
C        33.22951279309621   -9.32147507173893   12.06398125119997
H        33.23005153807108  -10.40165857362690   12.07407397042544
C        32.92004842951928   -8.61781405227149   13.18659783200895
H        32.66488723277823   -9.12671738031085   14.10528958711687
C        32.91812971350079   -7.19940942429966   13.18395053058955
C        32.57606950827428   -6.47083556669444   14.31925910988305
H        32.30064356767635   -6.99760853910488   15.22250574518757
C        32.58303531963659   -5.07973152261456   14.31813674864366
C        32.24854449159429   -4.34029433718804   15.48199080377874
H        31.96483695731368   -4.88799439723081   16.36955537560566
C        32.29336194052378   -2.98086389810852   15.48658057735995
H        32.03921293627083   -2.42479281310335   16.37711885966535
C        32.69536716789739   -2.28458506305208   14.32854955019672
H        32.75680862568760   -1.20648190807762   14.35730335426128
C        33.01287832085379   -2.95827596979285   13.18824949261154
H        33.33971779949727   -2.41753869655543   12.31369902604189
C        32.94375823122920   -4.37402186987111   13.12739000374538
C        33.26214993663090   -5.09752305987248   11.96327207402298
C        33.60789692180428   -4.42653038185540   10.71713518281598
H        34.52191136075831   -4.74793662687790   10.23043541830064
C        32.88721034199436   -3.50027115683472   10.07708277429887
H        31.94307694047981   -3.14199320424759   10.46008494239702
O        34.41956789812480   -3.44637836247556    8.30641393035399
C        33.31882205117761   -3.01413269587899    8.75405565441500
C        32.46072231282188   -2.14564493689008    8.06861194269852
H        31.57662299898562   -1.78885889353442    8.57325772921032
O        33.64490229464546   -2.13565376913799    6.01673173691248
C        32.68876095705900   -1.73704671024196    6.74916326632109
C        31.72964364626905   -0.78713780928847    6.16387308830450
H        30.91702778932215   -0.45497171197307    6.79423823355395
C        31.85186484073895   -0.36049015636680    4.90221620596166
H        32.66841717734623   -0.76896222715090    4.31770918777891
C        30.96090357936960    0.58871073366303    4.24411040949197
C        30.36448648651622    0.23227750383219    3.01890912629080
C        30.59396291153983   -1.02567052534751    2.40420865039077
H        31.25012109633823   -1.73139467951054    2.88997801490186
C        29.99977865522880   -1.35242473162291    1.22269102663078
H        30.19167984490728   -2.31187920838922    0.76461603354737
C        29.12475721624164   -0.45024755984224    0.58477725833909
H        28.66386961372193   -0.73165187766831   -0.35089741237749
C        28.86266700543814    0.75902360006766    1.15025702464592
H        28.18712687841208    1.45720115147035    0.67638515174681
C        29.46456699707765    1.13804175480076    2.37743264024979
C        29.18507425047870    2.36301845158427    2.97494138701290
H        28.48893039809441    3.03841292010281    2.49681560367115
C        29.78486573816279    2.73940709106932    4.17222305323032
C        29.51412193086755    3.99925829397884    4.76605474250812
H        28.81038174500658    4.65429400412325    4.27208625600033
C        30.13043177846444    4.37981427947064    5.91724547447029
H        29.92096540673641    5.34160213283852    6.36230506751052
C        31.07008398838081    3.52503556401932    6.52812903554923
H        31.57795903009653    3.85415514003022    7.42299479192664
C        31.34681030480753    2.30242622798052    5.99540929843168
H        32.08508068105682    1.66718334377510    6.45980843005430
C        30.69854642246285    1.84803952270023    4.81773588909191
N        35.13892423432880   -5.33059248363532    6.50756906455436
C        35.71096145981978   -6.00676357093822    7.49355412517213
H        36.16202261111997   -5.40799299051097    8.27038127265198
C        35.73098727767341   -7.39140657954002    7.54029547422425
H        36.20097642375073   -7.90036733753298    8.36752289749592
C        35.13848555982686   -8.09943399984087    6.50668898411963
H        35.13832484829393   -9.17978229712224    6.50634118811608
C        37.01852774642268   -6.50699834440777    1.03401381854922
C        36.72791628628350   -7.27979420009868    2.18837799668596
H        36.50736563945028   -6.77418335231025    3.11663814701606
C        36.73595421819770   -8.64143878438476    2.14638271435519
H        36.50949467306886   -9.21324614819787    3.03516136741095
C        37.04916343451542   -9.32164134370774    0.95250556535801
H        37.04838178748497  -10.40182478772046    0.94247121762532
C        37.35891516226940   -8.61810967283821   -0.17011328943076
H        37.61406673945788   -9.12711965355919   -1.08874816425263
C        37.36113782613515   -7.19970516117362   -0.16754620905680
C        37.70348881870449   -6.47127182490397   -1.30285718734059
H        37.97891994898712   -6.99815709833055   -2.20603666781634
C        37.69681338314717   -5.08016694417559   -1.30182022554402
C        38.03159308546074   -4.34087220811259   -2.46568153557960
H        38.31530775626921   -4.88868646497849   -3.35317318221579
C        37.98703773849525   -2.98143338909330   -2.47036885446739
H        38.24141075831510   -2.42547004762581   -3.36091036965995
C        37.58501343701208   -2.28499948779030   -1.31243689191356
H        37.52379264468239   -1.20688588676925   -1.34126694801048
C        37.26723747956419   -2.95855389587814   -0.17212880004186
H        36.94039422011743   -2.41769503039609    0.70234408688875
C        37.33609235775561   -4.37430854242318   -0.11116154385675
C        37.01741814815753   -5.09766984157595    1.05296596266234
C        36.67162061300159   -4.42653878310573    2.29900942378498
H        35.75752151662277   -4.74781756133459    2.78563523146415
C        37.39231313507701   -3.50030700694041    2.93909958174545
H        38.33652284900354   -3.14211573520130    2.55620840043627
O        35.85975987690932   -3.44631881314345    4.70958757269575
C        36.96055805872638   -3.01408874842354    4.26205015741401
C        37.81850782336905   -2.14549363922848    4.94753349721836
H        38.70269373005107   -1.78873982096908    4.44301789117611
O        36.63389841981148   -2.13531613578425    6.99916219465602
C        37.59019014604522   -1.73677082736901    6.26690035861944
C        38.54922713914705   -0.78686437341646    6.85232832915918
H        39.36194392279722   -0.45471480016228    6.22208377552945
C        38.42682204176784   -0.36020845891314    8.11396368122688
H        37.61017322535245   -0.76866170293003    8.69834956852833
C        39.31770806061457    0.58897538122543    8.77219790497912
C        39.91395368970438    0.23251268628161    9.99747315685476
C        39.68434261352083   -1.02542730315902   10.61214085059694
H        39.02820469381255   -1.73111702297200   10.12629445140276
C        40.27837088260402   -1.35221459874461   11.79372760493843
H        40.08636359536428   -2.31165922483563   12.25177830021391
C        41.15336270054225   -0.45008388512063   12.43174759401278
H        41.61413334577831   -0.73151839646314   13.36747102473911
C        41.41557731555466    0.75917759881568   11.86630499602072
H        42.09110086441509    1.45731753712158   12.34025616358769
C        40.81383733439748    1.13823251336601   10.63906232410719
C        41.09345172530065    2.36320317786934   10.04159792545276
H        41.78956344208272    3.03856637897193   10.51981496341614
C        40.49381688974442    2.73962828643248    8.84424913401113
C        40.76467665830558    3.99947755681534    8.25046592062134
H        41.46837624489428    4.65448471090865    8.74453040125865
C        40.14852715778375    4.38006472284588    7.09919969365250
H        40.35808258780249    5.34185006039952    6.65417637606284
C        39.20892984396090    3.52532000161565    6.48818377001423
H        38.70118298530177    3.85446413221524    5.59325408137183
C        38.93209242865049    2.30271578722106    7.02085792430313
H        38.19386266508462    1.66749970043540    6.55635698110775
C        39.58018439809412    1.84829896598883    8.19861419116476
C        34.56665977245805   -6.00595566918170    5.52116051292276
H        34.11578357048601   -5.40654393222627    4.74472160045776
C        34.54619777455812   -7.39056279509467    5.47353882095915
H        34.07606007843058   -7.89885370859298    4.64598420546120

