79
CSD_code = QAWLOR | q = 1 | S = 0 | Stoichiometry = C39H32N7Ru(1+) | MND = 6
Ru        6.25385351630056    6.15740798016988    5.27514473314944
N         4.36167826782073    5.74426316426299    4.65677473956185
N         7.88903635421008    7.26866727820828    5.73575926343192
N         5.75165151525419    5.98628769688687    7.22517465250065
N         6.90015719273329    4.36324967105770    5.64987068021747
N         7.00679583855671    5.65520301547778    3.47037805722733
N         5.74182014029789    4.72969986085684    9.07360026694991
N         8.03574498397901    4.12554080411944    2.20671544192287
C         3.85789916680499    4.51602662951889    4.54196276802020
H         4.49420861036432    3.69704007326394    4.86471250309609
C         2.59903654780613    4.24965377753990    4.04411913032387
H         2.24207346197879    3.23510071766377    3.97659148443346
C         1.82246404714506    5.32300862717205    3.62845385669509
H         0.83770932413815    5.16317464340047    3.21772125731089
C         2.33090421307483    6.60017763359482    3.74732649956104
H         1.73657276574530    7.42906412785185    3.41366760126760
C         3.60712701026195    6.81673370928394    4.27856341482281
C         4.26749891924604    8.10605064352086    4.45340143674496
C         5.59329305279055    7.95063514946051    4.90340212080543
C         6.45129469043317    9.04880078478431    5.11050127131722
C         5.97313810745317   10.34283357437018    4.84060963541776
C         4.64839643816921   10.46399822420598    4.43567952859249
H         4.27164364771145   11.46088833680819    4.25583003272566
C         3.76918599550048    9.40341896136694    4.24608149413777
C         7.75761395344327    8.62055435099346    5.60028172355520
C         8.83362332504868    9.44733966344067    5.94166114235411
H         8.74563341430050   10.51315911888004    5.85519318347120
C        10.01991455421719    8.91127493473197    6.39909952795360
H        10.84517870935563    9.55521805349945    6.66017164800043
C        10.13269032002252    7.53250387213667    6.51792185910897
H        11.04006662206575    7.06847487549702    6.86813989233270
C         9.04001754882668    6.76246368525892    6.17665138305389
H         9.09376357431957    5.68098021682323    6.26276556603163
C         2.36230248842955    9.73479208149540    3.85316150961541
H         2.20492358865081   10.80973818686957    3.90526276491888
H         1.64808665790255    9.25610163447781    4.52104197773650
H         2.15926286707252    9.42081022969486    2.82947318271431
C         6.77580901663218   11.60214113291672    4.95724162628927
H         6.18660293411205   12.45162473124294    4.61987326905403
H         7.67267182310166   11.55026668200095    4.34192988707123
H         7.06284308669133   11.78720603788865    5.99183232848947
C         5.16512843260933    6.71258689588656    8.22107587395929
C         4.63597537001597    8.00117192295719    8.21006172597292
H         4.65243499897786    8.58741782868067    7.30443228984871
C         4.10372312474123    8.47540983081639    9.38785274431958
H         3.68444433698452    9.46868604460217    9.42110918121340
C         4.09206808951802    7.69783518740798   10.55067008111206
H         3.66421416298325    8.11017415713407   11.45113839656588
C         4.61097658809972    6.42053986851713   10.57845911622851
H         4.59134066607098    5.83752076680262   11.48577990009529
C         5.15230213479288    5.92932301663023    9.39666269960053
C         6.09167553413193    4.80169896617924    7.75344600632440
C         6.74178377653614    3.84273061885986    6.89300946589575
C         7.18194000675540    2.55211082537765    7.17875121979576
H         7.06466237126625    2.12147437560818    8.15700112075477
C         7.78272308492724    1.81195921782933    6.16944611435714
H         8.12776332862729    0.81121893123012    6.37304834465668
C         7.94120763154224    2.35036249553744    4.89980179564096
H         8.40607568491956    1.76468741078544    4.12710028854760
C         7.48740910007644    3.64551636039949    4.65891253048474
C         7.53188010950385    4.42167401551361    3.44336587819707
C         7.81794270979243    5.22672735933742    1.41235120876810
C         8.11353458949882    5.49769875398747    0.08188594828795
H         8.60889167289736    4.77999022832487   -0.55292590180449
C         7.74632648002967    6.73418086211569   -0.40590356319760
H         7.96145167314271    6.97732309222250   -1.43471853528741
C         7.10244729965867    7.68365804961724    0.39463704111702
H         6.83711991301808    8.63570910605232   -0.03745273716888
C         6.80297814050028    7.42843767245148    1.71394871770869
H         6.30669528954989    8.14866926193363    2.34597046331482
C         7.16787612783342    6.18407860483620    2.22254894140175
C         5.93670198950685    3.63118491497366    9.97927692290926
H         5.39959362104271    2.74506024878389    9.63500148447302
H         5.54826294575948    3.91186476528679   10.95542284440504
H         6.99843940038472    3.39852807443460   10.08313371246884
C         8.68154839527267    2.91311811823125    1.78466841718568
H         9.57684154076714    2.72420292092467    2.38025828684035
H         8.97646297497503    3.02026015191495    0.74354030444018
H         8.00146841132229    2.06273450512122    1.86598732857836

