85
CSD_code = QAWMOS | q = 0 | S = 0 | Stoichiometry = C27H52MoNP3Si | MND = 6
Mo       -3.27298467501499    6.42228990932151    5.24325281932225
Si       -4.11577122502817    8.78983880962348    5.26450261909165
P        -4.85080031255525    6.16518825614685    3.45222146105269
P        -3.71979004240376    4.21235588520208    6.20178294480545
P        -1.64776884514154    6.93862443192657    6.95525571391684
N        -2.03361333122814    6.43881030581730    3.98439752653857
C        -1.25004587411725    6.41230094448473    2.89740882924432
C        -0.87590293115436    5.17192452780611    2.30155438415098
C        -0.17847504551669    5.15600239367252    1.10894357509653
H         0.09498875952720    4.21013248919205    0.66588345041841
C         0.18549309103400    6.32759642067111    0.47084857074552
H         0.71582631531773    6.29616291302005   -0.46945759817788
C        -0.10406228924961    7.53668398826001    1.07313070275274
H         0.22483788837150    8.45033420249408    0.60015528980697
C        -0.79225135798093    7.60718707219313    2.27134752893252
C        -1.16395691402591    3.87592944350150    3.01823471676816
H        -1.97201295333737    4.07249995885172    3.73395153121402
C        -1.58381754799043    2.73662922798337    2.08828422744295
H        -0.73630496437981    2.36768165015379    1.51514812328438
H        -2.35451424256860    3.05592251175693    1.39074294189318
H        -1.97196101894994    1.90278475325261    2.67136039487162
C         0.09364674802163    3.46601082716649    3.79317735268131
H        -0.05647657665715    2.51369207978058    4.29844378666870
H         0.34343601295329    4.22177195702103    4.53440990335238
H         0.93725011453924    3.36378736429531    3.11256610440272
C        -0.97373195673043    8.95478406245060    2.92620850902868
H        -1.54625262225907    8.80917136217743    3.84764544469102
C         0.39728573384958    9.54396120066992    3.28078188259105
H         1.00896618755389    8.81735347098537    3.81326112297530
H         0.27717646525668   10.42548243593263    3.90697813394240
H         0.93531020513180    9.83496427543727    2.38107653421962
C        -1.73909750221379    9.93758144534600    2.03935352745622
H        -1.20755473360365   10.12405325484825    1.10860074478814
H        -1.85851570739938   10.88483962979675    2.56032068366946
H        -2.72768909262970    9.55470283335171    1.80265423726843
C        -4.05817130318643    9.73346169987402    6.91420922369172
C        -4.84138369910163    9.32447195254543    7.98758954643795
H        -5.49383222022947    8.47047584753507    7.86043410931701
C        -4.80387946830663    9.97872000590523    9.20618618490856
H        -5.42739255688107    9.64177201386656   10.02419353415858
C        -3.96504801237137   11.06737861711736    9.38071558888194
H        -3.92912209559004   11.58113099180882   10.33143016288996
C        -3.18089625522377   11.49672136446860    8.32377525997973
H        -2.53062158637879   12.35267477404023    8.44736243533353
C        -3.23655941449725   10.83610249717038    7.10879019078568
H        -2.63768137935121   11.19474612430504    6.28180848847019
C        -6.65968394450719    6.24312826946897    3.72985266134350
H        -6.98715072257526    5.40107209715675    4.33629013443896
H        -7.19171647778332    6.23978607233218    2.77751098996407
H        -6.87240016472397    7.16599782496327    4.26787062904146
C        -4.70332005620550    7.41977250541716    2.12399142460914
H        -4.96096892841399    8.39846632394683    2.52225128657864
H        -5.35678679862757    7.17480679834029    1.28470820104633
H        -3.66664660376866    7.43275135186305    1.78573656362233
C        -4.72674210122538    4.68861035381579    2.35401313313679
H        -4.73212047527145    3.76526538889101    2.93143856435264
H        -3.77483394688901    4.76480001751421    1.82847209663189
H        -5.54140909949730    4.67290109456997    1.62847925922959
C        -2.81166820508889    2.64886484390369    5.83765424059871
H        -3.13873849327343    1.85679839367745    6.51127359595625
H        -1.74309841178635    2.81103872476927    5.96159423841924
H        -3.00404396428544    2.34424011600601    4.81117733664183
C        -5.43215082813665    3.56925634131422    5.98794054244880
H        -5.55590825689004    2.61813204691498    6.50819967502620
H        -5.65220892660955    3.43192357280985    4.93016571560536
H        -6.12090896131245    4.30568765536483    6.40046162493975
C        -0.26895479594965    5.73331668513170    7.19852981227572
H        -0.65797377664863    4.74427357366958    7.43859117573116
H         0.40754078606282    6.06278236538353    7.98826383051369
H         0.27989613664805    5.66966493111226    6.25801610526364
C        -3.68591186038274    4.09493327987222    8.03987611278784
H        -4.30023876033176    4.89911834952004    8.44319166650115
H        -2.66496053242796    4.20536356210318    8.40388535390557
H        -4.08127513763094    3.13287096069842    8.36971390353156
C        -2.10299848378492    7.28760602345223    8.69587581978085
H        -2.59271527059984    6.43030810783296    9.15086711318525
H        -2.79652827531420    8.12802048525243    8.70119667220856
H        -1.21152604329108    7.54655392701246    9.26873341889662
C        -0.60347635770178    8.41409703119017    6.65203313338600
H        -1.23810251569624    9.29804302028358    6.62498195452342
H        -0.11223960438667    8.29675366021480    5.68830790253300
H         0.14865128906852    8.52749394105749    7.43454632116482
H        -3.60154358553187    9.85920570553708    4.35600011450166
H        -5.57423304414318    9.01270075137312    4.96055672243138
H        -4.54968256938361    6.43660166307097    6.35202850746054

