96
CSD_code = QAWMEH | q = 1 | S = 0 | Stoichiometry = C44H46NO2P2Pd(1+) | MND = 4
Pd       -4.33857125436295    3.34543840651353   12.80688302890724
P        -5.26882086846002    5.37912052865116   12.30625580433917
P        -3.39837720398260    1.31660242898387   13.38135250674559
O        -4.60159065586253    2.45846935545144   10.28576966489681
O        -2.93075031646831    4.19594039404526   14.47902665350857
N        -6.51806531506928    2.09220120512739   11.45864221017988
C        -5.27016958153211    2.52211528754925   11.28814053919838
C        -7.24303825936944    2.23258808862463   12.70747991049650
C        -7.25954126022543    0.94418955278729   13.52561522067569
C        -7.16407825805990    1.40485780408410   10.34262794193383
C        -6.60733554178478    0.00209687885380   10.12845636855743
C        -5.20689364708390    6.44284913675209   13.77937298402304
C        -5.54720026512839    5.83560277583973   14.98671979660950
C        -5.49829754992182    6.55335468210649   16.16571519768069
C        -5.09786422091268    7.88096632816567   16.14601067614305
C        -4.74945376669742    8.48524237748141   14.94921596226845
C        -4.80105272772837    7.77101596079083   13.76409140775738
C        -6.97328857897234    5.53526349515111   11.69524526830108
C        -7.23137514012042    5.08016765750438   10.40305682738548
C        -8.51644558579150    5.12582194633306    9.89857052906312
C        -9.55094706840482    5.61892480061321   10.67994152479838
C        -9.29771153413592    6.06737093814804   11.96552937102234
C        -8.01267404589703    6.02358229577771   12.47869572091789
C        -4.29822520644525    6.22472474779285   11.03210188885861
C        -4.74706332615474    7.35399903521700   10.35330056638456
C        -3.93838323148959    7.93859894373014    9.39567594097953
C        -2.69223539030611    7.40113168682479    9.11006016984343
C        -2.24776261243859    6.27134808852994    9.77824002392430
C        -3.05093322514949    5.68193574039097   10.73719355762656
C        -3.61821021968922    0.89166068650144   15.12936630266054
C        -4.44333682540650    1.72544514978028   15.87811705850703
C        -4.64248642050971    1.48077440601923   17.22444590011667
C        -4.02179614042385    0.39699051126850   17.82495628726583
C        -3.21103690480478   -0.44552348031368   17.07915678771187
C        -3.00850324378982   -0.20544753985220   15.73210728100888
C        -1.64105123492293    1.77278090070463   13.19148983600547
C        -1.34416854823502    2.50939605839141   12.04235609747164
C        -0.05720344043790    2.96522024951866   11.82137588426871
C         0.93743483251125    2.70446569328864   12.75240587425069
C         0.64129361749785    1.98817617470441   13.90005482210341
C        -0.64411943652634    1.52283740749704   14.12479005816227
C        -3.52384926739577   -0.26481051344959   12.48906440367754
C        -2.90402770640633   -0.41326204364420   11.25116089459294
C        -3.05495093876048   -1.58709631741926   10.53622550818769
C        -3.82975905845399   -2.61785643456805   11.04265874172309
C        -4.45504472153654   -2.47172816113256   12.26980553536509
C        -4.30969030936123   -1.29989167510570   12.98957403814064
C        -1.92265244528442    4.79891351239224   14.78469710479076
C        -1.21751862611386    4.53109555023132   16.07910906635351
C        -1.30971544929271    5.84422797394103   13.90367048327210
H        -6.75659913095504    3.02885174737224   13.30628513517402
H        -8.26432673333072    2.55353382719311   12.47818786015272
H        -7.76924374418589    1.11307927030609   14.47047269365094
H        -7.77489733401284    0.14928058572962   12.99378622953713
H        -6.23538008389607    0.62957370617324   13.72887393488435
H        -8.23568406999315    1.37171615945115   10.54409151021004
H        -6.99175952585956    1.99754607851319    9.43939351407657
H        -6.74809233712010   -0.61995329159985   11.00831683641689
H        -7.10997357771633   -0.46487611222183    9.28636172425444
H        -5.54387995931284    0.05607513774586    9.91054772955224
H        -6.41580046993386    4.70249694505459    9.79934556286056
H        -8.71371491893581    4.78038330577306    8.89500749616074
H       -10.55418906810369    5.65632988177560   10.28410811727690
H       -10.10241766804038    6.45542883806626   12.57147878212301
H        -7.81604999890290    6.37680777700516   13.48153202295367
H        -5.84980578492207    4.79013758784922   14.98754217079588
H        -5.76689472453260    6.08257778472772   17.09960462458571
H        -5.05410089033155    8.44354687702570   17.06605060416755
H        -4.43428442281202    9.51765537521090   14.93759353254892
H        -4.52209498703283    8.24286872771083   12.83250079980223
H        -5.72649808186073    7.75968014985068   10.56747135528379
H        -4.28214683902376    8.81400887921209    8.86589505372284
H        -2.06991473643168    7.86119311807552    8.35787565730848
H        -1.28193068362837    5.85013934687379    9.54304120537609
H        -2.72865474591761    4.78388585000156   11.26837872889764
H        -4.92407816115463    2.57093317496391   15.38471249623385
H        -5.28189918433281    2.12780899207427   17.80621132043091
H        -4.17594491024072    0.20160421756411   18.87511475998716
H        -2.73833414943726   -1.29458086922845   17.54933655541360
H        -2.39269936465984   -0.87236820688545   15.14407917742310
H        -2.13103514276031    2.69886482934278   11.30921303858650
H         0.17350780439984    3.52323183073899   10.92557669698154
H         1.94192781891956    3.06226294669655   12.58386144829252
H         1.41517071502141    1.78894082265766   14.62630013026801
H        -0.86758810096469    0.97677844279227   15.02955567169105
H        -2.30218318684862    0.38678809120457   10.84607133150327
H        -2.56733940277208   -1.69626459514022    9.57946700652077
H        -3.94596463125668   -3.53276140544342   10.48265795537241
H        -5.05860764796669   -3.27270670126996   12.66963544223434
H        -4.79841369428565   -1.19817882507439   13.94914876529529
H        -1.61838121570974    3.64055981072428   16.55727853225509
H        -0.14961393376923    4.41745389998687   15.91039870439291
H        -1.36098784258387    5.38329792176761   16.74201137966825
H        -0.85699447678293    6.63887590043039   14.48875356234974
H        -0.52719651314045    5.37123081244000   13.30946210075534
H        -2.05547213756311    6.25387268022899   13.22333581388171

