41
CSD_code = QAWQUB | q = 0 | S = 0 | Stoichiometry = C11H17CoN12 | MND = 6
Co        7.26232236151552    2.87119322129194   16.55399884196017
N         5.81212330481514    1.46384963348414   16.21790751572101
H         6.08047015977470    0.70654442338063   15.59090703816084
H         5.62692229882850    1.04969486112715   17.13257052526724
C         4.59870855555663    2.12887211536004   15.72275001117836
H         3.69635764451976    1.54533584460395   15.93786850725079
H         4.69129976111911    2.24342891065774   14.63922841081106
C         4.50964979947970    3.51455976943916   16.36726126519398
H         3.65531744022550    4.07820256812728   15.97043476843080
H         4.40005901110480    3.41002122620877   17.44932468093767
N         5.78479614409456    4.16749559167503   16.09868748255744
H         5.85295530424713    4.33683196345672   15.09362394582784
C         6.09540179572778    5.40233674036381   16.80342452254091
H         5.52614945949352    6.26376739525731   16.43023664083869
H         5.87123720497905    5.26366925448329   17.86412100752956
C         7.60032990448029    5.62710687575603   16.62233174919109
H         7.95643056811596    6.43942737201417   17.26414339021318
H         7.80635578809661    5.88559852721696   15.57685042574860
N         8.28932528123783    4.37858634179675   16.92956848040063
C         9.41418556403499    4.38845441409905   17.53340428374911
H         9.82847748853055    3.41597801662395   17.78241944618614
C        10.18965650469347    5.54730902291344   17.96893774550441
C        10.52652582880455    6.59085708276728   17.10782641523009
H        10.22989765305924    6.54931713317051   16.07044604101719
C        11.29286744492279    7.64672470966726   17.56756074734144
H        11.56412549328036    8.44364086978562   16.89155310684259
C        11.71034479898959    7.68249479549678   18.88769654186997
H        12.30146913053346    8.51271685821854   19.24390375787744
C        11.37818844787692    6.64711596410848   19.74808022807784
H        11.70696145839171    6.67149279955153   20.77585653144933
C        10.63713833848655    5.57466729335432   19.29109769889838
H        10.36555546031453    4.76794910518835   19.95518278683961
N         7.68133932167809    2.85470093735619   14.71717830975549
N         8.55263398714746    3.40485753619541   14.16030952653568
N         9.32026105990563    3.93510050694303   13.51300815618468
N         8.61651969744460    1.65899918103557   16.92376437194029
N         8.58324437527030    0.49945747929516   16.75455979407497
N         8.67289987903423   -0.62737397688775   16.65127827156191
N         6.69873808298682    2.82655382763152   18.37113815582353
N         7.31100393488606    3.14402655788491   19.31689246453160
N         7.80895426231655    3.46643724989994   20.28526640894873

