53
CSD_code = QAWQUD | q = 0 | S = 0 | Stoichiometry = C26H14Br4N8Ni | MND = 4
Ni        7.95411563553025    4.42855604022142    0.00000263190138
Br       14.85966877793869   -1.21950243391121    2.32114167232476
Br       13.47279661474775   -0.90214022173565   -3.16488520224635
N         9.34053869516100    3.25137788221603    0.32964046079741
N        10.15477140839422    2.46062195982587   -0.34384365857894
N        10.65575862879505    2.27977576762463    1.82791040535374
N         7.92897297987972    4.65860457516015    1.96093421820660
C        10.93982785328728    1.88306332265988    0.57079461088651
C         9.65582307301101    3.13026684242126    1.64478440096672
C         8.87659110146907    3.90891299277220    2.56837281039677
C         9.05745750434113    3.90435288482054    3.94669529834876
H         9.83350152726798    3.28393149042781    4.36397229595688
C         8.23497487716900    4.69550510573868    4.72555790076835
H         8.34809002693206    4.71609812224139    5.79869486882165
C         7.26223452125753    5.46215280459101    4.09973927099792
H         6.59918701701775    6.09174779289372    4.67076901939539
C         7.14090770900043    5.41747908996331    2.71980008928366
H         6.39093773832370    6.00656713411648    2.20184586471635
C        11.98146348234093    0.93266442073649    0.24457173285366
C        12.77699546744398    0.40759078630650    1.26084428819918
H        12.60433168374322    0.71822531925560    2.27871197201265
C        13.76783951416579   -0.49895579819134    0.93918887334866
C        13.99280410108090   -0.90240659709883   -0.36755988394038
H        14.77101278530730   -1.61107964967450   -0.60383140284478
C        13.18886396099681   -0.36659147118748   -1.36021879428423
C        12.18889112107330    0.54255338705440   -1.07673631284877
H        11.56926571453052    0.95108922132546   -1.85841815044481
Br        1.04848216014889   10.07654451140848   -2.32112129307527
Br        2.43529148672975    9.75909875490270    3.16490737331236
N         6.56776923829130    5.60582416578791   -0.32963336023659
N         5.75368811581357    6.39675200391900    0.34383374462139
N         5.25264755818598    6.57754233123383   -1.82791456422818
N         7.97938778488455    4.19866284798129   -1.96094280033630
C         4.96841224510513    6.97406065971856   -0.57077493186336
C         6.25253832057005    5.72699918861854   -1.64478537457736
C         7.03176177038214    4.94834619245004   -2.56837786326120
C         6.85094044140798    4.95295810687768   -3.94670673784900
H         6.07489620557910    5.57337911267346   -4.36398303868183
C         7.67343319177159    4.16181664348143   -4.72557211536131
H         7.56034159425106    4.14124971252127   -5.79871154176488
C         8.64621274899675    3.39521386377872   -4.09975822359860
H         9.30923323864012    2.76558556890695   -4.67078456200806
C         8.76755030928775    3.43990199633352   -2.71981978222304
H         9.51740823015607    2.85068487470363   -2.20185272964677
C         3.92672083094337    7.92439601458606   -0.24454616796890
C         3.13121464335213    8.44950315877761   -1.26082998438473
H         3.30389234852932    8.13888156934606   -2.27869683834007
C         2.14033206163759    9.35601119659360   -0.93917681666888
C         1.91533025710648    9.75941563416451    0.36757611326100
H         1.13717359551744   10.46815253632153    0.60383047839553
C         2.71938265807569    9.22372989697059    1.36020567787182
C         3.71935397154971    8.31458132732579    1.07673586919064
H         4.33898147288011    7.90604736004315    1.85842018907306

