109
CSD_code = QAWSOZ | q = 0 | S = 0 | Stoichiometry = C48H55BrFeP2Si2 | MND = 8
Fe       10.10042922492124   10.12458925725715    2.02207331106352
Si        9.47226188283888   13.95494536813326    5.02928517846726
Si        7.35491334839107   14.70477111397427    5.69232873890746
Br        2.90707450184548    9.84867878941163    6.06825538029296
P         8.44662019249734   10.99651343289224    1.00671809128602
P        11.37740979951943   11.34960111734322    0.80670072258076
C        10.72763357258650    9.12669927322115    3.78430582315182
C        11.57565435006742    8.77289136858530    2.70758721424544
C        10.77887162716105    8.12827552244410    1.69940898549034
C         9.44297676573184    8.09832015375586    2.15788030504591
C         9.39686751530713    8.76658296895845    3.42227362718832
C        11.14188230396723    9.67575049036897    5.11132629850424
H        10.63940726727162   10.62167878015579    5.30801014276274
H        12.21624400647163    9.83639617472872    5.14485488750452
H        10.87566696258068    8.97370272754863    5.90218772032842
C        13.06974159985599    8.81087703598814    2.70676962495356
H        13.44534274418021    9.73793946734301    3.13448928407715
H        13.45365071893095    8.71817244906271    1.69417087110176
H        13.46099348144170    7.97947720795220    3.29710687176840
C        11.33280952023143    7.38145668958479    0.52689846970526
H        11.97713430665546    8.01365342048893   -0.08311415207736
H        10.53217014380453    6.99494751680225   -0.09877473820670
H        11.92949551138135    6.53589974009871    0.87443254340187
C         8.31476448354736    7.33503445073054    1.54168911749202
H         7.39343142129949    7.51421458642454    2.08865678420222
H         8.53191348940131    6.26615103695791    1.58437510531854
H         8.15875888130935    7.60365783831816    0.49836052508565
C         8.19841836154545    8.87752953614938    4.30500626892429
H         8.39829820880056    9.57458115906183    5.11304816407510
H         7.94144571356617    7.90693242838253    4.73385214650563
H         7.34512565891600    9.24653220881619    3.73842058916398
C         8.98349358849115   12.66459374483930    0.39606375891812
H         8.24988740672936   13.08050327464305   -0.30248967118265
H         9.07721700343082   13.31653135179917    1.26682764782301
C        10.34759106956751   12.48867386312663   -0.25772133614829
H        10.84873611177875   13.45072393948591   -0.39336014217662
H        10.22469429931578   12.02113719828323   -1.23846548253599
C         7.93440781921160   10.30207252167167   -0.61595369159574
C         8.78377846344018    9.36175660031029   -1.18263134708307
H         9.65720867912830    9.06663150555160   -0.61698713414660
C         8.51603640268107    8.82956607729933   -2.43138282352075
H         9.18317581236132    8.09770720397235   -2.86506661664037
C         7.38740601316730    9.23860737885896   -3.12204848633469
H         7.16952384152563    8.82590810329679   -4.09624454739648
C         6.53542825011969   10.17887600324737   -2.56302400354358
H         5.65677822786239   10.49777811012843   -3.10514177303892
C         6.80491929809488   10.71225297108745   -1.31556667131070
H         6.13742221641889   11.44368066824039   -0.88056233756011
C         6.80408544186879   11.32477578051667    1.71950438607469
C         5.88516850714240   10.27694440312673    1.72013332749903
H         6.17495790094008    9.32514381861367    1.29537145205518
C         4.61193121651364   10.45517658747016    2.22591206097576
H         3.90648893992084    9.63678101041178    2.22228953739745
C         4.23735538342049   11.69152725306676    2.72723301514048
H         3.23496716096307   11.84200857589666    3.09983267729510
C         5.15129920113490   12.73073783760222    2.75162418151704
H         4.86189658061218   13.69051904300607    3.15261581761977
C         6.43492701225924   12.54647349014117    2.26805571177091
H         7.14983925212752   13.35270622821119    2.31811834662845
C        12.48661278153256   12.53897208566089    1.64547780413437
C        12.65074817374437   12.42774712824104    3.01904764580427
H        12.07756374414358   11.68089054755303    3.54390860377747
C        13.50490229627277   13.28333337191800    3.69219186055821
H        13.62877467705433   13.19326947345228    4.76176129130532
C        14.19966378456676   14.25798568944544    2.99605327814992
H        14.86367900174501   14.93058076000099    3.51953765870593
C        14.04440684794416   14.36998829980742    1.62298941950732
H        14.59107074180778   15.12659027117485    1.07829043679207
C        13.19758563042509   13.51121753728245    0.94758912584266
H        13.10257719111053   13.58474644560108   -0.12794834583286
C        12.56921189586322   10.69896301277447   -0.42742048644438
C        13.91750150765863   10.57976090952459   -0.09446168261734
H        14.26784562952269   10.96139298220767    0.85372514817606
C        14.81386025335301    9.99385154061344   -0.96922333755026
H        15.85639952707778    9.91628195766583   -0.69606683513506
C        14.37900352449470    9.50562388427542   -2.19014410103313
H        15.07884524130951    9.04818321786034   -2.87363398045338
C        13.03943503937626    9.60457228354792   -2.52651384230931
H        12.69011934195498    9.22169439574417   -3.47472909375789
C        12.14185913182643   10.18731783818902   -1.65013597786902
H        11.09945577606534   10.24106389335593   -1.92658522675742
C         9.69306017491008   11.65010888575755    3.03883659389026
C         9.50943011302632   12.54506181900428    3.84663469756052
C        10.46366080041740   13.43540401415382    6.58350987974947
H        10.58127014725970   14.26469285612135    7.27533883028893
H        11.45642982421931   13.08299525097503    6.32068889530407
H         9.96171350380313   12.63315121893587    7.11735126859650
C        10.40650064314035   15.40814013075934    4.20376238983925
H        10.52579311892408   16.24614704885601    4.88504888718606
H         9.86940593602734   15.76892970530175    3.33128668496984
H        11.39538829066805   15.10541274188883    3.87291869360874
C         7.36500299284007   15.53995054332987    7.41844421963834
H         7.69604210453878   14.84699883731765    8.18684288138040
H         6.37958140382802   15.89736011048467    7.70541494239070
H         8.03767673263353   16.39286957497324    7.43472807124323
C         6.61614839247531   15.98954596993997    4.47684989492355
H         6.56593207758024   15.59706151478622    3.46541034339413
H         7.22910645050194   16.88566863311072    4.44628406008285
H         5.61194093480185   16.29248456310566    4.76107010016501
C         6.07676517485746   13.29359122731039    5.82941832523118
C         6.42969600602760   11.97397980799551    5.57172261977561
H         7.44213956594182   11.74469987722552    5.27512221359046
C         5.50657075121888   10.94828101901511    5.65969936439268
H         5.79187687690950    9.92798454762510    5.45676969739275
C         4.20198916185412   11.25075085786751    5.99973893965976
C         3.81309859126553   12.54920358870756    6.27136215657930
H         2.79025352436580   12.76911886296664    6.53974680029497
C         4.75842189042200   13.55480711241973    6.18796123060857
H         4.45385441060001   14.56942429863408    6.40070819625019

