79
CSD_code = QAWSEN | q = 1 | S = 0 | Stoichiometry = C38H34AgN4O2(1+) | MND = 2
Ag        4.13911569716562    8.75666194146938    8.14057029451770
O         4.63681777521239    6.78877371271571    9.88682286128155
O         6.29672632687437    8.84338962037398    9.72136984939618
N         3.31032319807097    5.86908626218194    7.50184623802447
N         4.39782930963615    6.50775694957837    5.77571234359436
N         5.13311171678428   11.45236413926190    9.23986741076875
N         3.04095086126475   11.41710017576441    9.67584825256514
C         2.88833305562191    7.50372677136355    3.62749059004725
H         2.39492064267937    7.24646457563114    4.55412452690266
C         2.09741868861349    7.73705279119171    2.49413345294648
H         1.02485455373617    7.64716206858644    2.57345785395682
C         2.68366726379091    8.06697203919249    1.30706215117097
H         2.08559991085767    8.23851175642515    0.42474502332087
C         4.08434305880648    8.20112382704755    1.21227289237517
C         4.69772976215984    8.56307395676593   -0.00547738040433
H         4.06955737740833    8.72382868105440   -0.86915382297042
C         6.05243675276776    8.71177115047394   -0.09315042359442
H         6.51554509383132    8.98824376854414   -1.02787264572414
C         6.85058594467057    8.51068773507490    1.04171535494064
H         7.91988946248056    8.64132971100742    0.96739996072166
C         6.28756091783416    8.15457949747828    2.23596283076731
H         6.92865873594237    8.02113936691104    3.09405676828255
C         4.89181461677387    7.97674230027960    2.36142172896536
C         4.25500170703759    7.59849872452078    3.57425285530794
C         5.08963164702692    7.31584917542747    4.80709155837146
H         6.00671492409958    6.79255973342664    4.52171455631371
H         5.36015136973174    8.26193008588388    5.29615602701486
C         4.11481578464499    5.18230130004846    5.59362862843374
H         4.40814827816579    4.64733143995097    4.71431571368536
C         3.43382630076360    4.77414128366045    6.69051763697981
H         3.03184121737469    3.81539646742946    6.94551576485650
C         3.90374210041274    6.94682539078678    6.94538377186783
C         2.71968638413704    5.86735905765331    8.81096864530143
H         1.98107942901383    5.06630419122091    8.87803717596304
H         2.22819759357155    6.83347239367555    8.97672522797042
C         3.78120239444074    5.66715299502351    9.89475731129346
H         3.28228784988478    5.57160839230969   10.86813101928717
H         4.35310471154714    4.75255941043943    9.68577789004073
C         5.72270779548733    6.77501760527980   10.72769542051176
C         5.98136193522025    5.76512242816385   11.64113510467364
H         5.31602045386846    4.92212006031549   11.73043651388947
C         7.09435159935380    5.82460939732499   12.46642334614505
H         7.27390200928822    5.02914721245928   13.17135742718649
C         7.95914500453609    6.89351397530725   12.37933776513101
H         8.82941937837092    6.94772992390294   13.01283297093486
C         7.71409274672544    7.91149359592136   11.46986708540633
H         8.40949210244985    8.73252346195095   11.41502414367900
C         6.60365070248869    7.87016840015074   10.64232783529592
C         7.06085889212419   10.02991682822558    9.74602023450902
H         8.09149810195586    9.82861249929318    9.42533620121157
H         7.07138367493082   10.44921721811436   10.76145936063380
C         6.42980131185847   11.03839806412941    8.78240846714795
H         7.08318416030052   11.90872382070270    8.69574719884525
H         6.31886593247351   10.56491992018207    7.80028269575231
C         4.88001078942737   12.53855993131505   10.03219231083216
H         5.64111906429446   13.22991927588171   10.32963447900024
C         3.55286529693575   12.51815330337813   10.30240143246470
H         2.94797169734704   13.18414271004968   10.88198371614170
C         4.00315124696391   10.75123263746435    9.01513605583935
C         1.65046341712523   11.02544457566102    9.73145250960522
H         1.56735054430246   10.04328657173795    9.24819006049281
H         1.05614328171485   11.73997851243568    9.15207858915268
C         1.13975144391198   10.99145111215922   11.15102685352205
C         0.15426064278763   11.87015494750486   11.52434690414843
H        -0.25955530682496   12.55247610437741   10.79529232409183
C        -0.33642761950832   11.90500492162674   12.83654137387699
H        -1.11680728651632   12.60524343594838   13.09077951810887
C         0.18262405540097   11.06587403189006   13.77975787242508
H        -0.17586940514295   11.09110587887457   14.79780919652313
C         1.20096013615564   10.14949637069197   13.44413824224903
C         1.75009825555636    9.28935699633533   14.41828000948889
H         1.37100998206602    9.34685026353993   15.42776824906522
C         2.74173458720544    8.40733281986229   14.09687554496462
H         3.16644587599236    7.75862572283370   14.84776472375455
C         3.20965498742286    8.33596636443074   12.77715732277775
H         3.99430615198875    7.63414202552242   12.53511628183790
C         2.69169849294673    9.14781186154819   11.80638987054413
H         3.06683946105396    9.05546944139322   10.79353853879835
C         1.68574199113338   10.09275293229026   12.10755635479851

