117
CSD_code = QAWVAO | q = 0 | S = 0 | Stoichiometry = C60H48CuNO3P4 | MND = 4
Cu       12.74610175582738   11.06696367027534    3.24182023286223
P        13.50451941869883   12.07748431898852    5.52569517939644
P        13.30890353927207   13.60279773727376    3.19612161354454
P        10.42668579190254   11.18441324235378    3.59944257884584
P        14.09157052197867    9.23170617690241    2.50768721716448
O        13.26399476937378   10.63787557711331    5.22375846762079
O        13.65023226376817   12.54085002538255    2.19617036256183
O        11.66968494964138    8.76034107623452    3.72900063130931
N        12.69483886216053   13.15942880068068    4.62358935994143
C        13.01176901392212   12.44527140217637    7.22930402225958
C        12.91158848122855   11.39111342960226    8.12356193177476
C        12.56506991906297   11.63059401850321    9.44077541661637
C        12.32739820181308   12.92714766904443    9.86657271380176
C        12.42757756514576   13.98275241744267    8.97408360978375
C        12.76804889842427   13.74260789910592    7.65576759622930
C        15.28854787359004   12.44386759645831    5.45325499069772
C        16.01257323193121   11.77096095252492    4.48056290800299
C        17.35398965658204   12.04664123810977    4.29179304829008
C        17.97383401396899   13.00383216994621    5.07796876744658
C        17.25249222799994   13.67934071626255    6.04894954949852
C        15.91058004414899   13.40324000503196    6.23845616558966
C        12.05961859898249   14.74171887623246    2.53391110058301
C        11.09347295857983   15.33423336693342    3.33131442500269
C        10.19573399535738   16.22915867385191    2.77945622634326
C        10.27170615299022   16.54409867227916    1.43277445222219
C        11.24406450515566   15.96228795125741    0.63493257923689
C        12.13675130081923   15.06213939434359    1.18590138539160
C        14.74049809621336   14.70531652238963    3.40590823890255
C        14.65172186143829   15.76765786198485    4.29386155433949
C        15.73018402940420   16.61246300008735    4.46884644685238
C        16.89610517375791   16.40039487529679    3.74930981185758
C        16.98063243063278   15.34827497972360    2.85337649251770
C        15.90189288475873   14.49991841077514    2.67912572441240
C         9.63610727842750    9.63430680835386    3.05323364393272
C         8.39723217264402    9.50878721335269    2.44588506729336
C         7.95340287898922    8.26616681232996    2.02478646066276
C         8.75203160984859    7.14821430784012    2.19201805732339
C        10.00228050035015    7.25521437494904    2.77824203361038
C        10.44151492336096    8.49731213812840    3.20861272532535
C        12.51512634097675    7.76651833184591    4.14404103621041
C        12.15006964957480    6.78853345560065    5.05448461713747
C        13.08775629010863    5.85246521754263    5.45770177019363
C        14.37796068033725    5.89874732100758    4.95710276368413
C        14.74734569827817    6.88620675581890    4.05950543471756
C        13.81906979071835    7.82772925529423    3.63765934014607
C         9.26527831179027   12.39366031551985    2.87640301020813
C         9.57843245664777   12.82598636675516    1.59068174463751
C         8.74715701204040   13.70580869584176    0.92431508200825
C         7.60221402203562   14.17595528657312    1.54639395605217
C         7.28896750084003   13.75563155386563    2.82842120321357
C         8.11076634799674   12.86228606733962    3.49290640618441
C        10.01320149395590   11.21660359871396    5.36950147276580
C         9.97948889333945   12.45573661837200    6.00545351829922
C         9.71042121495226   12.54029313494845    7.35769106504729
C         9.50906677343353   11.38754838865400    8.09831990740415
C         9.57036752462288   10.15171873614496    7.47727671593123
C         9.81603932937391   10.06268082591880    6.11902237024997
C        12.89026326999189    8.75844936627151    1.21963381834475
C        12.03969063376550    9.74441498453844    0.73646919206993
C        11.04839391335470    9.42577058533159   -0.17418201032753
C        10.90651771081865    8.11846172314455   -0.60879508153220
C        11.76135021451568    7.13353522175599   -0.13989134862151
C        12.75025330775504    7.44783863265592    0.77450850267899
C        15.69550561603959    8.80989566750749    1.74544408235746
C        16.83147793079671    8.83692872280829    2.55562713799073
C        18.08287745626899    8.61390278517962    2.01349792651024
C        18.21955389327161    8.38646169815481    0.65311475604793
C        17.09985667931905    8.39558802176534   -0.16194863165865
C        15.84420957962296    8.61400576076531    0.37641928312534
H        13.09807555583749   10.38981509671911    7.76240228875437
H        12.48195440452671   10.80901778872793   10.13817828091008
H        12.06070805689276   13.11719220802588   10.89670805443399
H        12.23907582780450   14.99307381139999    9.31054260904255
H        12.83585629016945   14.55087479467218    6.94184970753575
H        15.50290662733808   11.03078898614868    3.87230605889089
H        17.91252299117653   11.52275670650499    3.52870530720027
H        19.02127360250455   13.22698946012619    4.93374412108819
H        17.73828960401961   14.42777835000427    6.65883393625235
H        15.34436396503488   13.92738629603171    6.99581510186180
H        11.05712183082614   15.08412348918710    4.38091773021771
H         9.43666070553912   16.68613888133372    3.39856774145694
H         9.57224210968182   17.24760038439969    1.00414263112632
H        11.30461092800817   16.21467547772382   -0.41453535355566
H        12.90157179135246   14.58997418709917    0.58416779761214
H        13.73168299218268   15.91494231371549    4.84258525811559
H        15.66683781050559   17.43756576867286    5.16423289581645
H        17.74055663425108   17.06046016749850    3.88713596009517
H        17.88956701285537   15.18905673796866    2.29090091444742
H        15.94566215547167   13.67185870590375    1.98609889736722
H         7.77858994609867   10.38274960459291    2.30681402743060
H         6.98269128334702    8.17118460641345    1.56236894180840
H         8.40681639024289    6.18186165848302    1.85658699512956
H        10.63606164660531    6.38735714641588    2.88448736316058
H        11.14368782650766    6.76629575345938    5.44698316820343
H        12.80795195293150    5.08680539070288    6.16568407404453
H        15.10311699436921    5.16191460515311    5.26925816907484
H        15.75487914721115    6.90820798331429    3.67188442779149
H        10.48703366213240   12.46782831910157    1.12486316621454
H         8.99359662366805   14.03181683912186   -0.07540714840857
H         6.95426984810881   14.87118266573037    1.03292461698574
H         6.39391444622711   14.12070868925099    3.31190535510159
H         7.85307929923146   12.52601399253364    4.48734136785281
H        10.15791349710029   13.34931423108035    5.42589627739418
H         9.66865554152658   13.50598601049260    7.84031164166501
H         9.30902992066670   11.45328012175643    9.15774326506676
H         9.42154330988681    9.25033288426827    8.05493039386501
H         9.84704596629860    9.09430415500129    5.64279333052634
H        12.17370184019823   10.75372857417791    1.10526036358170
H        10.38036132088671   10.19213720252296   -0.53874208252699
H        10.12816036362866    7.86453363762888   -1.31304145575591
H        11.65123666054733    6.11504418268828   -0.48352283220172
H        13.41388439305790    6.67959444032082    1.14917894507949
H        16.72688915236737    9.03612731612951    3.61421148832086
H        18.95599923647356    8.62431066030179    2.65072262755331
H        19.19774594957235    8.21425110584003    0.22857415443581
H        17.20567914132381    8.23474646370019   -1.22527048704929
H        14.97549185651200    8.63075467018106   -0.26605192356905

