43
CSD_code = QAWXUK | q = 1 | S = 0 | Stoichiometry = C10H25Cl3CoN4(1+) | MND = 4
Co        7.46104449690760    9.23909927262347    5.93852969878326
Cl        9.04192152250512    8.70659471608473    4.89777194910344
Cl        7.44921065226115    8.94950406998790    7.88210805080362
N         3.94731395045588    4.51737217054311    1.76333225793747
C         5.09538251120541    5.71054178599932    3.60183539020281
H         5.61943818689748    4.84475698153904    4.01253778932179
H         4.10902757222693    5.76427805831357    4.06767983710695
C         4.91175903408829    5.55516472658300    2.09332638723847
H         4.52317406922844    6.49727968735467    1.69903108241536
H         5.88821692773418    5.36834224021631    1.61532319850190
N         6.12507392727789    7.16947809575800    5.36023769104485
N         2.85861103340102    2.26884433199777    0.37479097090694
C         1.80464975833469    1.06944874405645   -1.47977226601448
H         2.81546958722064    1.16522850065332   -1.87592772316266
H         1.20443448065810    1.86431263010099   -1.92336272225974
C         4.46790130039638    3.17889071049882    1.96177298267518
H         4.82984342053423    3.08050485363958    2.98480540775972
H         5.30049442015126    2.96320198364634    1.26890923435881
C         3.46803421858196    4.62990843371164    0.40036154338373
H         4.27499729449805    4.45241929036531   -0.33228027804813
H         3.07156163605310    5.63506622710593    0.24544659103059
C         1.89726375822400    1.24172179169080    0.04554998290292
H         2.26309425048237    0.30740938673367    0.48317582141373
H         0.89832718603252    1.46220872361859    0.47926237288355
C         2.35505701989611    3.61581650662590    0.16004864870274
H         1.51660391122056    3.83612209612378    0.84295708481293
H         2.00788007875696    3.71246842162116   -0.87013867131926
Cl        6.17383969374806   10.49505610148074    5.14548544370057
C         5.89618210231205    6.97545038338834    3.92864283583147
H         6.87154279245980    6.93006261665325    3.43842000856258
H         5.36847975585387    7.85547257060538    3.55436178972734
C         1.25242906691664   -0.28591914064618   -1.88679571944518
N        -0.16155722016832   -0.42395293883140   -1.40789934352921
C         3.35860927813146    2.15853514528038    1.73625581313088
H         3.75969897837272    1.15294746320111    1.88325590909336
H         2.55667490254798    2.33533274613951    2.47213723294623
H        -0.17755999009456   -0.26819319804754   -0.38967664618534
H        -0.75175543925075    0.29248587602411   -1.85123803683695
H         1.26302241334187   -0.40032901704737   -2.97142829776610
H         5.22852930606119    7.21702709371497    5.83796141732557
H         1.84315587899910   -1.08827552751819   -1.44183714669780
H        -0.54770264403390   -1.35234230830939   -1.61773353976913
H         6.61512491957328    6.36035769672934    5.73377596741840

