90
CSD_code = QAWXAO | q = 0 | S = 0 | Stoichiometry = C43H40Cl2O2P2Ru | MND = 6
C         1.75616756623962    2.01503816750604   13.52335125648736
H         2.71033483038227    2.32243329530875   13.06624856354952
C         1.61089064412125    2.28356566558020   14.94299149287882
C         2.61660694534031    2.90607146382622   15.57834021030116
H         3.49704671131488    3.18171999691121   15.01039882960248
C         2.64358697034286    3.29945296130973   17.01306730088064
H         1.70250976384835    3.04843178894832   17.50106459120635
H         3.44312794461191    2.74254528627084   17.51179559689975
C         2.92363158049295    4.79641388036742   17.15871413244228
H         3.87183505804860    5.05624418358856   16.69372937759680
H         2.13623396208922    5.37358368616263   16.67990050494143
H         2.96652843092343    5.07237566368600   18.20927788005206
C         0.33067757175138    1.84983268726237   15.59271944564344
H        -0.14831980553963    2.68287763941091   16.10288541947391
H         0.51926415995719    1.05836208826283   16.31638605339483
H        -0.34876647123850    1.47011164733334   14.83333625562698
C         0.58456894803269    0.19001483871735    9.17212766161368
C         1.91269381215692   -1.43527946236326   13.26844179668458
C         0.71795679895585   -1.32457511809195   13.97653811367489
H        -0.17634623497585   -0.99374023884088   13.46100843120002
C         0.67887952608276   -1.63752206772350   15.32205376484040
H        -0.25116770251605   -1.55656170944721   15.86567250865849
C         1.82929455988148   -2.05943760067685   15.96954521011767
H         1.80196302659392   -2.29924454629655   17.02277514610531
C         3.01413023710921   -2.18416860260812   15.26383067757952
H         3.90880802781966   -2.52550318156943   15.76466243645701
C         3.05986552884320   -1.88230881825482   13.91369302419645
H         3.98606771607892   -1.99633597289357   13.36823401801237
C         3.50917729134872   -1.09844850307983   10.86751140663553
C         3.81441218767372   -1.72975854393063    9.66578929138595
H         3.04815929497175   -2.28541592385899    9.14170492700563
C         5.09145081001929   -1.63890253227079    9.14292971120658
H         5.32556544785074   -2.13322873948961    8.21133592282499
C         6.06378101327840   -0.90585415861970    9.80306993249951
H         7.05887307188872   -0.83335711421820    9.38909819455906
C         5.75533505723605   -0.24841324723969   10.98271945910645
H         6.50604960267120    0.34441248386877   11.48468938457353
C         4.48093845014857   -0.33401971277962   11.50977127969867
H         4.22778655971527    0.20246809537086   12.41512605628542
C         1.13128084197146   -2.67303747549659   10.93135568825645
C        -0.13136797070870   -2.75120254643947   10.35840970681922
H        -0.72212478323677   -1.85261682947739   10.23614573726069
C        -0.63638151972665   -3.98058169846090    9.96951662185741
H        -1.61728869756334   -4.03824639978074    9.52172374771071
C         0.11127504940108   -5.13025916053708   10.15572784636790
H        -0.28295523555631   -6.08780059067100    9.84824665473814
C         1.36529803882539   -5.05624855694802   10.74378305312160
H         1.94501411800580   -5.95487772747434   10.89777023248811
C         1.87424762494666   -3.83381913447156   11.13583190382510
H         2.85118264221245   -3.77061580415952   11.59639295693447
C        -2.04947161409940    2.89021188428931    9.75477215201776
C        -2.47906268605338    1.80610826402640    8.99869239058452
H        -1.82218646325949    0.95493832009535    8.86976173916142
C        -3.74444326566136    1.80599641374662    8.44120235295194
H        -4.07733809344415    0.95619487314367    7.86415776576299
C        -4.58352165677057    2.89167504142241    8.62815888997891
H        -5.57435347954891    2.89040298006512    8.19817839136692
C        -4.15283029645947    3.98091202036077    9.36825535584331
H        -4.80573817034202    4.82990035355574    9.51160334132013
C        -2.88830139289880    3.98641033409179    9.92698966013335
H        -2.55757133317296    4.83815976371170   10.50515254500582
C        -0.40794981455720    3.87078692802545   11.91225586244908
C        -1.47912523195228    3.73095902083237   12.79092577935629
H        -2.31620193859070    3.10251674945826   12.51723130365923
C        -1.45864595112487    4.38610641041124   14.00875186349757
H        -2.29662291064757    4.28841622458811   14.68389811174946
C        -0.36407534420001    5.15693018226507   14.36714554633858
H        -0.35441734217809    5.66937210116050   15.31875290307187
C         0.72321004629971    5.25976147891230   13.51398969811388
H         1.58722757572011    5.84038717141876   13.80422636548949
C         0.70801197429778    4.61520369586021   12.29057881702340
H         1.55886079620489    4.67479767131959   11.62377652447104
C         0.39138522642060    4.01052326658224    9.15782727362213
C         0.22117383612281    5.38896078080718    9.23142845540043
H        -0.29635784465768    5.82922060265510   10.07259061200392
C         0.72832806302738    6.20053332506660    8.23364755253943
H         0.60189849378869    7.27175172992547    8.29837053902686
C         1.39727686290817    5.64471229628158    7.15530651925141
H         1.79550485124139    6.28359099877924    6.38067118895953
C         1.55667860866357    4.27153206426046    7.07262276152861
H         2.07859811683973    3.83546840000097    6.23386941042392
C         1.05193574323291    3.45560256619128    8.06830739650384
H         1.18711671176566    2.38297240464821    8.01758085194513
O         0.87799196304976    1.49160411581721   12.85184231174966
O         0.59095400761099   -0.29788807979290    8.13006539191035
P         1.80528919085333   -1.07571830039229   11.48564042547432
P        -0.34354026638986    2.89059586797150   10.39012246276596
Cl        2.74775988697199    2.03853153872038   10.47281736821803
Cl       -1.46688023475609    0.20205633794560   11.62856800051847
Ru        0.69665437349606    0.87202840022373   10.87222470347307

