75
CSD_code = QAWXUI | q = 1 | S = 0 | Stoichiometry = C32H32N7ORuS2(1+) | MND = 6
Ru        1.59950610586742   11.29699356449205    5.75742854461781
S         1.96453056811047   13.36578868416464    7.09339081259050
S         0.32913523548016   12.92054491031375    9.64902422456784
N         0.57016650961631   11.28250923738255    7.57378243767608
N         2.86321997696348   11.73150528862655    4.27289329542732
N         3.30168023365998   10.69074376999639    6.58612500361798
N        -0.09585930205042   11.89641992648217    4.91867307421109
N         1.02512886964877    9.59226822943630    4.89745297201253
C        -0.16599711442398    9.63618315135554    4.24755346796287
C         4.16959769880499   11.68799873844827    4.62690187469916
C        -2.09805694688548   11.19713159180069    3.79499575198753
H        -2.66996269355680   10.41092327505386    3.33091289886697
C        -1.37316190642854    8.45935757618881    8.65914012667890
N        -0.23468313661439   10.51534890133663    8.31687004562780
C        -0.82862484827397   10.93183853205780    4.30793181018748
C         1.28293755674628    7.31375295668083    4.23116856233720
H         1.88527741062186    6.42029342736824    4.24541687733612
C         5.68437694116572   10.91409809491565    6.49805928143973
H         6.56342128734108   11.25246528344926    5.97557905468781
C        -1.85245946407044   13.45887178640734    4.49950102327310
H        -2.21525854598960   14.46940061371774    4.59075713433521
C        -0.67009735783563    8.51678243658529    3.58540646421908
H        -1.61963071563746    8.57171966865126    3.07975593164516
C         5.80269553021769   10.31153553464135    7.73692500069581
H         6.77128535828334   10.17803597146177    8.19115170842522
C        -2.62183441667689   12.47131811184309    3.89465528900944
H        -3.60383083916064   12.69364521693035    3.50946794776381
C         0.05408924885817    7.34113093376952    3.57803595800018
H        -0.32291666831086    6.46560991083856    3.07477374434681
C         0.91527836780753   12.44119603030818    8.08253686871748
C         1.72447509628098    8.45280653321477    4.87083904850439
H         2.67090714566069    8.45667170298415    5.39930362019977
C        -0.60667058029379   13.12784906472850    4.99307197333221
H         0.01700973729866   13.87749787951095    5.46642443546966
C        -0.53321029272059    9.33472692024594    7.91155330261301
H        -0.12305248053698    8.95475522788949    6.96400794203272
C        -1.93443280642501    8.84809770345435    9.88589065253552
H        -1.73006517743486    9.84393123317769   10.24681703945957
C         4.42083777866843   11.09049629379370    5.93743483286621
C         4.64949435378085    9.88020127402207    8.38001224021361
H         4.69367252635347    9.39798013588948    9.34269650297736
C        -2.44750431790722    6.30781659483630    8.91018191031223
H        -2.61565575883120    5.31770236640608    8.51797255827224
C         3.48010154468440   12.69401166004719    2.17835928395615
H         3.16591729580668   13.07925939691374    1.22226957036966
C         2.54291968511619   12.21660361154716    3.07297484516239
H         1.48888308027739   12.22283162410556    2.82029027294571
C         1.10452148948036   14.55300061580183    9.79394997543142
H         0.81141444489140   14.94576286582624   10.76150020712259
H         2.18362618760483   14.44829196466637    9.73685113918080
H         0.74508976994653   15.19753648586024    8.99774795388065
C        -1.65733728398368    7.16907290925027    8.19246273870740
H        -1.23483762669171    6.84218516423725    7.25106820368654
C         5.16673407396253   12.15804527131556    3.77362969845904
H         6.19978363563073   12.12688648407912    4.07708735435877
C         4.82217376532203   12.67234471410352    2.53832993305196
H         5.57962228924225   13.04678194268273    1.86880345907113
N        -3.79097836674482    5.85205073442523   10.87372801485555
C        -3.00858383676630    6.68816203273928   10.14750657772662
C        -2.72509300692279    7.99397594014419   10.60592272025631
H        -3.15272984579670    8.34219426513653   11.53094127247416
C        -4.29034530023710    4.60335816490796   10.35290572011781
H        -4.42667723733394    4.67668471854855    9.27303049178970
H        -5.26601200554583    4.41046697482484   10.80592310081981
C         3.42773505213562   10.08764427723769    7.76877954152861
H         2.51085773206052    9.76355832213878    8.24675057080177
C        -4.12802407705661    6.14314265697347   12.24927517993996
H        -3.27071088686712    6.56396147554981   12.77399643251730
H        -4.96800193299937    6.84132170877209   12.31740774638039
H        -4.39754480114713    5.21246051375116   12.74195051915281
O        -3.53465970028694    3.09754899913547   12.04455833864558
H        -2.98773566312327    2.33801340547278   12.26827630052327
C        -3.38132669646568    3.40855730529004   10.67839671615522
H        -2.33674475573946    3.66618717784813   10.45439163000553
H        -3.67719518942081    2.55515233160282   10.05236124543388

