95
CSD_code = QAWYOF | q = 1 | S = 0 | Stoichiometry = C49H39N2O2P2Ru(1+) | MND = 6
Ru        7.61809307961616    4.39192592819865    4.65703211744168
H         8.16146970789700    4.95984498577951    5.97461525440735
P         7.74861091834439    2.27008609321175    5.64476379722314
O        10.82899594753191    3.37129108083354    2.32664870411247
N         9.53274452031526    4.10883900740217    3.98817864405985
C        10.83760574610636    4.29283010679479    4.37261852924088
P         7.71601300316521    6.56428499625658    3.77681820119695
O         4.78496711675289    4.71658926723031    5.56159155526461
N         7.25288314686617    3.58560793624164    2.78408484012058
C        11.40232953929825    4.81559089610029    5.52886756058648
H        10.77516121572540    5.16845790512300    6.33177946472128
C        12.77903756465525    4.85475502443650    5.58514336975664
H        13.26076740580339    5.25309146475797    6.46429187089833
C        13.57322424346515    4.39214810330093    4.53332443186839
H        14.64661960744300    4.44536428649399    4.62626029713449
C        13.02667209057823    3.86769502766630    3.37720680411090
H        13.63526759750120    3.50886481706433    2.56422673118516
C        11.64663628316486    3.82661866844338    3.31844844200925
C         9.58459216370597    3.57048076478285    2.79198231326251
C         8.37117912385056    3.25769274599632    2.09170721059525
C         8.34590030211755    2.68294822721927    0.82216745776068
H         9.27932657732546    2.44871804325349    0.33536869525520
C         7.12395010533174    2.43421577558894    0.23064804613316
H         7.06419762015775    1.98925772349323   -0.74937612412394
C         5.97327160304518    2.77762504882100    0.93323466120042
H         4.99659847346679    2.60822357633703    0.51062519484580
C         6.08359306065060    3.34306968279456    2.18898926504409
H         5.19338995351367    3.61539320253358    2.73765846625476
C         5.87059284182529    4.59598946047697    5.19916664720187
C         6.69060884759316    3.11270792316781    8.09667986175640
H         6.62350674924065    4.09062714143260    7.63668808183108
C         6.26530302501882    2.91143007317378    9.39883000234326
H         5.84878759093497    3.73389995389052    9.96021768101889
C         6.37258495874193    1.65882495571128    9.97913694672399
H         6.03882626744694    1.50319279191175   10.99359500757076
C         6.90918509252603    0.60191149632556    9.25879975601470
H         6.99454249448652   -0.37400354762002    9.71225762927175
C         7.33158133764015    0.79405500227623    7.95788297787552
H         7.74614978648931   -0.02966843445013    7.39313197823113
C         7.22500437709919    2.05472195042280    7.37223519068435
C         5.46628403252372    1.22934737016832    4.53927661704078
H         5.08941785182166    2.22330210299146    4.74398404018355
C         4.64038444128826    0.26773184160892    3.98928838586986
H         3.61874665769863    0.51186938705891    3.73979317108663
C         5.12426582112109   -1.01192603314278    3.76867641494547
H         4.48415099633219   -1.76536496214706    3.33617170335738
C         6.42588795114738   -1.32779621281778    4.12044354988493
H         6.79787917147717   -2.33026338225115    3.97056331799301
C         7.25614300236827   -0.36825782441892    4.67372681253665
H         8.26389431674759   -0.63620733126504    4.95726745336753
C         6.78538573529495    0.92629462327513    4.86854030695497
C        10.27222522139710    1.91769655870869    6.75336577791077
H         9.83858850761621    2.36300417373555    7.63821278564749
C        11.61715785031758    1.59627155022514    6.71474441754929
H        12.23859302383255    1.78375677134277    7.57697050614573
C        12.16730251670669    1.03949197347298    5.57215043575692
H        13.21692170370222    0.79098618164418    5.54244158340556
C        11.36998762793039    0.80196387072265    4.46337445981550
H        11.79789187575721    0.36957502210972    3.57071895889733
C        10.02475585495696    1.12001692266995    4.49606337946326
H         9.40483029257280    0.94018216146423    3.62461923101283
C         9.46319085801385    1.66901079608239    5.64871746266157
C        10.32049123498109    7.52846106352316    4.00846430372907
H        10.00258663372930    7.89569449181333    4.97449407661533
C        11.63621519780153    7.66507096722523    3.60263632243402
H        12.35027759471262    8.14862847651325    4.25149456156067
C        12.03909514275782    7.17785230808139    2.37036992391617
H        13.06619943844454    7.28277993273371    2.05656975658269
C        11.12316011219092    6.55303864483871    1.53796160289928
H        11.43622974518724    6.16986753388248    0.57772072582779
C         9.80626739292755    6.41645079097973    1.93641763826909
H         9.09060073451194    5.92566580357329    1.28573516035391
C         9.39252386839002    6.91690096769761    3.17119124881584
C         7.54292252762032    9.27435434498135    4.36958908858800
H         7.96539317251516    9.42387163348657    3.38543607607306
C         7.21385634012165   10.36037180747131    5.15709730726594
H         7.38055097686557   11.36108153727423    4.78810645543958
C         6.66665372566848   10.16603549517633    6.41674289720535
H         6.40806582319469   11.01755249547391    7.02731956146975
C         6.45132532563126    8.88277876512747    6.89040951163050
H         6.02389432654580    8.73239633998969    7.87009851926497
C         6.78308902548574    7.78936379886655    6.10870206611918
H         6.62977703869413    6.78043910332289    6.47132209062828
C         7.33433337029896    7.98183723605287    4.84822839376851
C         7.03074966980232    7.74325297778326    1.27672303230322
H         8.04665695579422    8.10359631844748    1.20050969209554
C         6.11937802941529    8.05897112993725    0.28413127013551
H         6.43537858137668    8.65717607833129   -0.55731771841098
C         4.80824316026909    7.62126606199751    0.36965171020118
H         4.10371311797399    7.87169771969798   -0.40841521325373
C         4.39936792940817    6.87518932103208    1.46331969636307
H         3.37302715229955    6.55041811112712    1.54545296266545
C         5.30652201501642    6.55568230579420    2.45571370540919
H         4.98960592394105    5.99827851994813    3.32739623258852
C         6.63239231936462    6.97139320375218    2.36358900781662

