36
CSD_code = QAXBUP | q = 0 | S = 0 | Stoichiometry = C12H17Cl4NOW | MND = 6
C         1.11065981117600    7.44390084653045    1.42270353625914
C         1.69931846060870    8.61989614445013    1.91999970097859
H         1.21338008002888    9.12149320504338    2.74609324695506
C         2.86609491081653    9.10713901537081    1.36232187394875
C         3.44800874726400    8.41829061317545    0.30222167731966
H         4.36063764154464    8.79809959890999   -0.13464917752618
C         2.88518980332432    7.25311254802917   -0.20924822471877
C         1.71815037700460    6.76803160316646    0.35090826883868
H         1.24758558367529    5.86645740403188   -0.01634020028494
C         3.51021193933485   10.34517766881602    1.90869655044320
H         4.03731503948862   10.88542703858968    1.12597065808385
H         4.23304424311783   10.07574955732843    2.67914913703991
H         2.76868410647992   11.00143205274136    2.35682741801512
C         3.52160059406959    6.54696670965670   -1.36798523836334
H         3.30508013013909    5.48220720511431   -1.33803955191318
H         4.59941449722188    6.69125066093342   -1.36535137688935
H         3.12921127403937    6.94540126994219   -2.30396449660640
Cl       -2.75717100569276    5.99726654743136    0.82714519773052
Cl       -0.98502014270666    4.10437752833787    2.80083561172104
Cl       -0.76863745440632    6.56480425896036    4.97068720592129
Cl       -2.59343415021104    8.43412629863417    3.02214817240195
N        -0.01215132722534    6.97826773529875    1.97177130151987
W        -1.48735260212126    6.38928072921960    2.75113481433953
O        -3.35283949327488    5.64596195820541    3.75319818858435
C        -5.61059069407369    5.46670884722842    4.44981382940138
H        -6.59568152680358    5.17871311933614    4.09221801632022
H        -5.71766977986281    6.26293824647436    5.18716254581820
C        -3.39193712653258    4.83101946517866    4.94002097015538
H        -3.14573315504581    5.46393504830473    5.80315892415689
H        -2.64006006712860    4.04050538885368    4.84182147287491
C        -4.81794498478352    4.30220627947123    5.03647008528178
H        -5.09618694343639    4.06519500460253    6.05987913832331
H        -4.93660726843591    3.41157591995059    4.41872316986911
C        -4.69849643226323    5.91165917754444    3.31183645378561
H        -4.88488172660530    5.32463035364001    2.40221598126030
H        -4.78329135872668    6.97929495149888    3.07964511895535

