30
CSD_code = QAXBAV | q = 0 | S = 0 | Stoichiometry = C10H13Cl4NOW | MND = 6
W         3.49109792637713    4.99812366346087    0.65914525792185
Cl        3.80102639043502    5.96946141281489    2.76477828534326
Cl        4.93008225813061    3.27915355941918    1.31852904370299
Cl        2.78185463903145    3.67055900713200   -1.13203768903835
Cl        1.55136667295785    6.27114647371638    0.39467723917956
O         2.04569181457746    3.71057122581334    1.79366693661846
N         4.63717098082199    6.00608104225212   -0.23856811902721
C         5.52255301240994    6.73964663456193   -0.91496148319814
C         5.19828134843514    8.03781791937859   -1.35110525157319
H         4.21480200833353    8.42319508155983   -1.12130680566296
C         6.12505506974453    8.78158466910864   -2.04859874280673
H         5.86959548559295    9.77749670376715   -2.37916827750946
C         7.38014007436199    8.25978941220786   -2.32851146928470
H         8.09971950151148    8.84881636089209   -2.87646253521175
C         7.70985540504186    6.98025056252438   -1.90369339096819
H         8.68669416974345    6.57472071773976   -2.12200571681277
C         6.79913216044809    6.22048422452721   -1.20285405410494
H         7.03167244538334    5.22117414405904   -0.86137179450720
C         1.78059697220420    2.32036409298342    1.52665702766495
H         1.17758267041797    2.25325926082963    0.61134952064418
H         2.73641375592595    1.80895241219053    1.37037467259117
C         1.00779557777388    1.80246638644006    2.73393148244298
H         1.69423532159820    1.51337741906419    3.53013829562417
H         0.37856206631816    0.95340698925105    2.48102112813120
C         0.21462827479366    3.04162637589117    3.13887574347204
H        -0.12618667340075    3.01517764581376    4.17044883889445
H        -0.64587866070487    3.17327345600577    2.48232865335577
C         1.23843625735607    4.14648568869831    2.90422082102069
H         0.78595915500537    5.11021018668242    2.64682840823368
H         1.89266391937306    4.27292727121646    3.77707397486358

