30
CSD_code = QAXCOK | q = 0 | S = 0 | Stoichiometry = C10H16ClNOW | MND = 5
C         0.93205347019412    1.82210959034124    9.04824731227702
H         0.99932908781549    1.27474851727679    9.99604590387359
H         1.96151120385208    2.00300111744571    8.69375171558129
H         0.45119475479210    1.15456936279083    8.31294046521215
C        -2.31825874096700    3.72600298288743    8.74384652223792
H        -2.56220761373349    2.93589151468329    8.01341340974861
H        -2.60465913765244    4.68792909776875    8.28410904238551
H        -2.96175480979583    3.57406455555389    9.61839706565253
C         0.94432757197955    5.62418428399665    9.23118901599544
H         0.42676012108574    6.38837892402856    8.62668625756673
H         1.94901411337665    5.49247300008586    8.79399377596503
H         1.07231675890223    6.03017894894171   10.24194381797888
C        -0.41975782840493    3.64963360040391   12.20581067263241
C        -1.55994811153620    4.11946622061893   12.87951287101608
H        -2.37880698748218    4.50525297062660   12.28952978117847
C        -1.63996089824856    4.09796905581966   14.25658712453199
H        -2.53457288801327    4.46953416762706   14.73176474134549
C        -0.58010708087228    3.60527162168517   15.01319413291548
C         0.56462343830309    3.14049798649382   14.35767694555713
H         1.37857667648082    2.76697715658553   14.95927408539256
C         0.64776980426615    3.16069235841067   12.98810637793326
H         1.53179788049733    2.80683065475171   12.47723252874732
C        -1.68028127847501    3.97792268833564   17.09148347513057
H        -1.44285727121759    3.81788005034085   18.14215062909242
H        -1.87176537209960    5.04278841585016   16.92305610314222
H        -2.57502659114404    3.40263076270537   16.83201013126791
N        -0.33929690222074    3.66833306538540   10.87315946497590
O        -0.55472284498365    3.53488445177469   16.37472114471074
W        -0.15553330066818    3.72628640471570    9.10932924021348
Cl        0.12724277598817    3.84611647206497    6.90093624573661

