42
CSD_code = QAXCIB | q = 0 | S = 0 | Stoichiometry = C13H24Br2P2Pd | MND = 4
Pd        2.23908445097463    6.64585405474494    1.87604951201239
Br       -0.10310439794031    6.16911517177829    1.30340273492095
Br        1.12174471055491   13.08078691622145    2.26881497689711
P         2.82885906116166    5.57734747150239   -0.04924634937443
P         1.55176139182221    6.96702605358917    4.03129196398665
C         4.06339396799544    7.65718588817109    2.10139765277840
C         3.42935602953590    8.98588533251055    2.12643422572579
C         3.61769756935708    9.89000945449775    3.17734303801429
C         2.94658634683288   11.09741380100059    3.22019550322632
C         2.06790490837948   11.42140464193600    2.20156743639934
C         1.87361286217336   10.56581128657279    1.12758363314695
C         2.55399387466065    9.36547800496812    1.08867244706125
C         2.36167555770318    3.81769258295921    0.15494212503892
C         1.98937234317183    6.00525298252278   -1.61929982964921
C         4.56779220124996    5.41483334565361   -0.62091239886473
C         2.69503010398930    7.28600329569871    5.43140127101147
C         0.28817531002452    8.26276701528001    4.29027904478443
C         0.70020551184026    5.46413386893899    4.64513366186438
H         4.66964717434406    7.46122404542247    2.98888867206206
H         4.66256178823026    7.50547698436515    1.19935721214891
H         4.32101210933736    9.65048868802059    3.96304704635415
H         3.10534102114664   11.78339746134153    4.03881639241545
H         1.19372535131126   10.83719218129780    0.33420540506731
H         2.42810292409347    8.71304837229197    0.21919508811002
H         1.28269506024704    3.75086331934228    0.30029582057829
H         2.86177628420940    3.41586598782954    1.03878511147124
H         2.65102831709804    3.24128288812231   -0.72393949968631
H         2.31829480939730    6.98802564911499   -1.95812101200197
H         0.91184949832212    6.02904327405382   -1.45747542729074
H         2.23107976875721    5.26172481220002   -2.37874839695955
H         4.94209961000753    6.37872168928172   -0.96331237470524
H         4.61741913085765    4.70239524391867   -1.44370374660050
H         5.19267394181248    5.06504980985986    0.20013329950797
H         3.46792964430784    6.51869549918206    5.45446836239123
H         2.13794135687589    7.26736145128724    6.36756866887306
H         3.16380251749597    8.25959733276679    5.31546055056740
H        -0.54208464129027    8.09608889682270    3.60397284136055
H         0.72500116065942    9.23974305588482    4.08312230009714
H        -0.07347506883073    8.23291525400763    5.31783605577901
H         1.38164284794525    4.61370989628951    4.57628451219669
H        -0.17519904310364    5.26188338297784    4.02843937355436
H         0.39459263347098    5.60350365556113    5.68227309562857

