32
CSD_code = QAXCAW | q = 0 | S = 0 | Stoichiometry = C11H18ClNW | MND = 5
C        -1.88944105879627    1.14326977220992    7.21656177170455
C        -3.04326013042635    0.75238016255145    7.94075127055917
C        -4.29351840448952    1.07873996016673    7.44790636587158
H        -5.17114673412109    0.77772336982142    8.00258824896395
C        -4.43797628455985    1.78243090657333    6.26390448264169
H        -5.42308833134258    2.02480277891693    5.89468788785485
C        -3.31338132353752    2.18300294634397    5.56074386840751
H        -3.42465348825764    2.74318005326577    4.64317366070936
C        -2.04576226072755    1.87950095058335    6.01750058072511
C        -2.89904490914707   -0.00712186909613    9.22575042701737
H        -2.99234861093636   -1.07767642069221    9.04121684449362
H        -3.67711698191865    0.28293808199086    9.92863049067206
H        -1.91255360509057    0.18010532645331    9.66852917717405
C        -0.81542282806123    2.31228491600286    5.28260818815812
H        -1.05293902294042    3.06249406739873    4.53278952529539
H        -0.35730741507711    1.45494301314372    4.78802167322636
H        -0.08878289394049    2.71569442255949    5.99140304813997
C         0.25265060972763    2.15132229727308   10.04265665792290
H        -0.66981162497114    2.69740808604903    9.80881136708351
H         1.07640413370727    2.88729100133002   10.06301582739537
H         0.15412216043391    1.75577472259785   11.06769647941786
C         2.21872085546012    1.00284297482914    7.03565063104926
H         1.84660468508825    0.98408701932853    6.00483659887847
H         3.05812570870129    0.29110181826280    7.09065026858023
H         2.64344995634656    2.00647179785915    7.21268278858196
C         0.33560011372850   -1.58614924966840    8.89424704433158
H         0.16207040586911   -1.82774646544633    9.95590101007475
H         1.22688118867358   -2.15857770728249    8.58004490057068
H        -0.51756197331109   -1.97078159459427    8.32289408665855
Cl        2.52968305679886    0.19201566543710   10.01199793548546
N        -0.67289588041696    0.85418873052149    7.68855425441038
W         0.79490088748314    0.54585846529865    8.63589263794985

