75
CSD_code = QAXCUN | q = 0 | S = 0 | Stoichiometry = C24H45Br2NP2Pd | MND = 4
Pd        1.69272106720101    2.64656005025165    0.17300047967998
Br        2.03866855134354    0.53056636095763    1.38685774165656
Br       -3.78387507998633    1.90890886145499   -4.38117398458564
P         3.15752143334026    1.88316678133653   -1.38971441058301
P         0.21534869570204    3.24346767539579    1.79611682543876
N         2.66559666715272    5.21383716827596   -0.10634134780979
C         1.65243363523570    4.48079181364058   -0.65515900057226
C         0.79887932628838    4.92504366822455   -1.60721364876115
C        -0.26372417727747    4.18457292453378   -2.23106786251323
C        -0.55228974277372    2.84222977692924   -1.94205231507905
C        -1.58112612295261    2.17218199366495   -2.56879427261775
C        -2.35324932960690    2.83637789991695   -3.50723211667191
C        -2.10238488630870    4.16217355072138   -3.82079191538082
C        -1.07102021797395    4.82082393214887   -3.18873509713520
C         3.06243216612504    6.60761009649061   -0.30170299662242
C         1.93305262893682    7.57276434497057    0.08612398654086
C         3.52694393008836    6.85171238909958   -1.74379134274979
C         4.25192170909785    6.85570370412127    0.63409360692965
C         1.01869658896222    3.46088040335779    3.44397168416255
C         2.37303329480106    4.14269455267469    3.29870893952196
C        -0.74111648633958    4.80601377972195    1.54481296662517
C        -1.88674997482923    5.08514945943281    2.50725707928935
C        -1.05512430876344    1.98097607346795    2.22398209027390
C        -1.77516360347889    1.45553661312078    0.98901022916469
C         4.85515213061772    1.65021666473487   -0.70352647718128
C         5.19412137416856    2.76518199391234    0.27748484046345
C         3.41180326961261    2.92297433227873   -2.89706734479141
C         4.22082460281290    2.31718761161375   -4.03509180937498
C         2.83443552291892    0.18930022317484   -2.03640936785133
C         1.39486939055915    0.02097690844927   -2.50490572675707
H         3.16695365545132    4.76417198947392    0.64891892307686
H         0.87963875858281    5.94359010151755   -1.97122512540618
H         0.06208939750704    2.31671008973167   -1.19764448896821
H        -1.78824018757227    1.13816114565600   -2.33499918235592
H        -2.71017534324682    4.67129782431079   -4.55377014279454
H        -0.87871357744304    5.85569101735037   -3.43731366613091
H         1.66347713733853    7.43040176083439    1.13116721405175
H         1.04638720802699    7.41198976073186   -0.51787955713396
H         2.26039112484346    8.60087955341154   -0.04597269661080
H         4.37096059543463    6.20551851782573   -1.97691668555430
H         3.84318040116386    7.88505964492377   -1.86169350555816
H         2.73746169387339    6.64852989709800   -2.45903678887390
H         5.07641418486621    6.18600346606407    0.39682345839137
H         3.96747537346380    6.70125964924767    1.67350330718648
H         4.60492078035219    7.87803227830271    0.52839165976676
H         0.36003270096150    4.02752271213979    4.10733924937575
H         1.15956193094380    2.46118201729249    3.86539519717380
H         2.87788358495842    4.21860806853051    4.26003002846497
H         2.26108204188294    5.14589243239310    2.88696335813302
H         3.00366229242012    3.54289705927591    2.63147927759547
H        -0.00332728535115    5.61353999353783    1.59117574059216
H        -1.11304781506491    4.78078108577861    0.51576804392860
H        -2.26552140647231    6.09184610270297    2.33918114625059
H        -1.56702864237096    5.01670765126507    3.54543288418104
H        -2.70843430321937    4.39094383375658    2.35064983033230
H        -0.53033692616532    1.15580366037315    2.71445662922974
H        -1.75463281231756    2.41737488801767    2.94185499561539
H        -2.55356528767859    0.75017950118294    1.27309636017920
H        -1.06343127673722    0.92994592481758    0.34937921531556
H        -2.22984577090737    2.26470529802014    0.41818717898139
H         4.85964159625582    0.69088577691316   -0.17783308840624
H         5.58385193384842    1.60417196803233   -1.51702346570719
H         6.16413014320875    2.59634328315580    0.74145304389793
H         4.43705442717419    2.78257578254121    1.07123558969994
H         5.21334024395271    3.73214934747355   -0.22507056401394
H         2.41573737974760    3.20507513505643   -3.25233337409399
H         3.88860920283946    3.84170708044873   -2.54083306072555
H         4.41766312272559    3.07920525805121   -4.78727373324989
H         3.67667485770546    1.50848317247384   -4.51632319976974
H         5.17864280212599    1.93335990277601   -3.68875416698441
H         3.54538490103979   -0.01905897070301   -2.84034972638737
H         3.03102376229430   -0.50703717878617   -1.21580154608012
H         1.24850785489088   -0.96576699505357   -2.93977024537887
H         1.12677659645200    0.77186068371158   -3.24773738148489
H         0.72115689327921    0.11423722040588   -1.65107637248830

