39
CSD_code = QAXFUQ | q = 0 | S = 0 | Stoichiometry = C10H18CoN5O5 | MND = 6
Co        1.41101947382416    1.26695270496814   16.63238447023501
N        -0.20669432084688    2.42885856551350   16.21508214089011
N         1.57906773364318    1.07638969547407   14.82748073049663
N         2.66158960322032    3.00577355712542   16.63447680236310
N         1.46490649391051    1.55596697636947   18.64118213588250
N        -0.20330971159817   -1.22137065852159   16.82689862176271
O        -2.40949997675505    2.36027399443017   15.49740351846461
O         0.76880235406426    4.76387207236734   15.14639465788351
O         1.07916762046533    2.02857432377647   12.81130276229356
O         4.67557249941093   -0.47495671853942   15.56381285943287
O         2.99406171938735    0.31011362414315   16.75069446963421
C        -1.59758601057391    2.05277385855738   16.59035822611365
C        -1.62141577827694    2.01389216321240   14.37912443268748
C        -0.24633824776625    2.60260133695991   14.73535178069813
C        -0.21261139587081    4.09044086123595   14.36443893523544
C         0.90159405454621    1.85311949552397   14.01002280451598
C         2.69534613316728    0.26774744223442   14.38899191276395
C         3.55714927439758   -0.01423561405106   15.63186710007809
C         0.43101838238579   -0.27137393931524   16.72828416709136
C         3.12742299645735    3.19987781730240   18.00783826568731
C         1.97189359455051    2.89547884176799   18.96132854462773
H         3.45731695632734    2.85042836208799   16.02063538351860
H         2.17751461415755    3.83236797201616   16.28207506851935
H         0.64186526826474    1.33834073430151   19.20042081621952
H         2.17973234967955    0.86835560473420   18.89016817365315
H         1.03433255083235    5.55875991363285   14.67527340220744
H        -1.62672987582811    0.97357887991090   16.79686566393253
H        -1.95551854210019    2.61013176658844   17.46003248314387
H        -2.06120727582397    2.44802366893054   13.48433650428172
H        -1.54929142400386    0.92419582060848   14.27464702247621
H         0.02245245228703    4.15018179683743   13.29742562105936
H        -1.19570222910935    4.54600435605756   14.55055106989656
H         3.27536161372338    0.78025545745669   13.61468417563308
H         2.34807632956402   -0.68904722916998   13.98095118222344
H         3.93123112852290    2.48386826338855   18.19664342149768
H         3.50855063498551    4.21296346237319   18.18646044122028
H         1.16720343912044    3.62273904361213   18.81569040228023
H         2.31527000392861    2.96569499480311   20.00061443974641
H        -0.01471448627150    3.35938673129415   16.58820538965183

