36
CSD_code = QAXFIF | q = 0 | S = 0 | Stoichiometry = C13H13Cl4N3S2Zn | MND = 4
Zn        2.66580495890436    2.05714721666193   12.37796689139589
N         2.88618913586500    3.22181803999284   14.12180908895644
C         3.08609248941070    4.45235605423351   13.86860823755575
S         3.98932201682748    5.58340151624182   14.88429641466452
C         4.68740387879405    4.50617802988662   16.19049828861988
C         3.33538949308786    2.59430819944414   15.34395062677751
C         4.73006411533405    3.05944736500932   15.75203095991164
N         1.02137072540288    3.37287847242307   12.14116099215939
C         1.47479043508853    4.56738604957636   12.05435800523319
S         0.82398423962773    5.78456182857008   10.96207794000626
C         2.07488835448991    7.01208028247805   11.46619672414512
N         2.53214905224717    5.06286947021441   12.76436632489257
C         3.17726360390877    6.18770025170383   12.09892950870948
C        -0.18975839958609    2.98611053896156   11.57116605411911
C        -0.25733121912136    1.78121932186544   10.87538343234928
C        -1.45274385054229    1.35322037492281   10.33646376867092
C        -2.60510660097435    2.11124172643639   10.49487160121969
Cl       -4.09104591170323    1.57056283693306    9.82020563797076
C        -1.34947850590192    3.73913667214712   11.74903459019993
C        -2.54869578645952    3.30283082876830   11.21334292373493
Cl       -3.96736727866751    4.24578958062590   11.44893491059700
Cl        4.14369816541874    3.11265952309814   11.06217898483763
Cl        2.54849289662172   -0.02237059302379   13.00121631607510
H         4.06807866436390    4.63809474587296   17.07859878958375
H         5.68214106841869    4.90806649824764   16.38248338502383
H         3.31821906520126    1.51809632455599   15.16491131368802
H         2.61103209155351    2.81734171248379   16.13656491639714
H         5.09252048792904    2.44826079310072   16.57904133462466
H         5.40950691208392    2.93602598304260   14.90503826160745
H         1.60815664121653    7.70109758364732   12.17068304277414
H         2.40934916847059    7.55351585763496   10.58582123641125
H         3.75108364372720    6.77903986616799   12.81102334715126
H         3.85212581880997    5.77154873658113   11.33854645491604
H         0.63620158311652    1.18284633552171   10.75827134632136
H        -1.50232206221005    0.42397928994469    9.79188293914921
H        -1.33146909076213    4.65025268602941   12.32548540954165

