46
CSD_code = QAXHUT | q = 0 | S = 0 | Stoichiometry = C18H18CoN4O4P | MND = 6
Co        0.26547444145331    3.89132952549152    1.99155540524042
P         2.10571624987319    4.34036995201085    0.45136748983332
O         2.12323968834648    3.88882378715872    1.97286665909778
O         0.62587842079856    3.87240949437182    0.16765338428641
O         3.16873784527059    3.89508767857087   -0.44575071672827
N        -1.71352819165879    3.89336697744514    1.86705144683531
N         0.12755128025698    1.95051352326048    1.92305218673210
N         0.03417210098324    3.83845888201341    3.84021004775766
C        -2.15604932642052    2.57665404035905    1.39460058974982
C        -1.08385035629878    1.52659560654114    1.55425571183804
C        -1.33197095466005    0.19249277236190    1.26460507657730
C        -0.29090672675771   -0.71861197020068    1.33828728766613
C         0.96903565295214   -0.26042643877183    1.69477688312902
C         1.13227366861259    1.08201828410934    1.98130218022751
C        -2.23318892947060    4.22798952465121    3.20041399418640
C        -1.23786531254714    3.86224769122275    4.26346036684489
C        -1.58008521584303    3.62091145276465    5.58242326337680
C        -0.57479006996753    3.36757233221434    6.50418709952468
C         0.74186586653140    3.37163535179663    6.06382787357144
C         1.00341988419225    3.60819402449686    4.72829614746933
H        -2.37410439810464    2.64108077127274    0.32365705397073
H        -3.07619501347730    2.25620951974598    1.90198545944669
H        -2.32284255527509   -0.11952389301342    0.97132354004733
H        -0.45789758363865   -1.75981140130581    1.10861563250776
H         1.81195476914372   -0.93010018577151    1.74471767638247
H         2.09222381028686    1.50303888638837    2.24412437934755
H        -2.36496289207130    5.31457382319040    3.24807516275256
H        -2.61615323121553    3.64237255292856    5.88368395089717
H        -0.81389811640893    3.18014806231974    7.53922517183237
H         1.55520651097016    3.19583549485273    6.74906209529342
H         2.00777427317562    3.62464933311436    4.32949367318304
O         2.05748731871152    5.96549643827632    0.53436905325458
N         0.11254234442098    5.73518810103544    1.86399611962342
C        -1.98895550098627    4.98920073279172    0.92239254011745
C        -0.99112668001562    6.10025560101067    1.15736271885416
C        -1.19718417312599    7.36668172944419    0.71491235448997
C        -0.14769670522034    8.32514452412607    0.88615566137297
C         1.04033911905604    7.93678534664633    1.36103710149932
C         1.31317674298495    6.48842544712116    1.64616435987909
H        -1.80229362673606    4.62317532306063   -0.09074518603605
H        -3.02966594234933    5.33217147834709    0.99525340635803
H        -2.12243972750768    7.64422152005115    0.23744237180969
H        -0.33588183515481    9.35673784292367    0.62666453551757
H         1.88038791020798    8.60349224402012    1.45799030061278
H         1.94884570860576    6.36950481686638    2.53808866040304
H        -3.20677054191876    3.75641339869363    3.38610982936532

