91
CSD_code = QAXMIN | q = 0 | S = 0 | Stoichiometry = C37H48IrN5 | MND = 6
Ir       29.05115208942501   19.39545012840027    3.79234142537046
N        27.13700785508764   19.31635149071061    4.36124317449182
N        28.63600972784866   21.27395612352962    2.77199642271907
N        29.05105210208060   23.40627105324149    3.79225427832711
C        28.40535344074004   17.91634027344555    2.57759332827060
C        29.10759291602309   17.20000269654718    1.60999620199191
H        30.16611829297231   17.37655230614562    1.47050943231751
C        28.48621641361547   16.25481653432439    0.81291051939818
H        29.05833237754335   15.71704212203836    0.06938300015354
C        27.13229994559471   15.98979098495945    0.96146444496680
H        26.65208867392721   15.24989903607548    0.33763224069731
C        26.40321791846752   16.67604397875267    1.90940126449128
H        25.34860832043659   16.46846521312288    2.01897978071327
C        27.02671761187341   17.63189920269609    2.71199798736413
C        26.34253327881275   18.41808565372092    3.72470264991472
C        24.99053614665337   18.30757299124783    4.04928479105673
H        24.37355857543158   17.59074713964011    3.53237763522769
C        24.44462373233926   19.11290699962096    5.02827034858728
H        23.39902002596117   19.03655476092997    5.28599021435513
C        26.60181198581941   20.08380968380330    5.30918731238564
H        27.27612195696721   20.77690674934335    5.78880063300250
C        25.27196337977746   20.02193103066907    5.67508158638511
H        24.89114060174205   20.66997541336316    6.44837066572748
C        27.88182161245394   21.77650246528290    1.65309875994858
H        27.67085488698777   22.85000310526068    1.78012070962993
C        26.53898205257918   21.04125566719549    1.54368146686729
H        25.95766940670261   21.14748860064899    2.45711088496033
H        26.71432485042702   19.98316030791335    1.36603821605431
H        25.95807809839750   21.44680024707462    0.71768088937940
C        28.64565726001245   21.55880357610703    0.33884638638327
H        28.85987708370903   20.49837160681457    0.22185728302519
H        29.58584134460928   22.10845155936273    0.32216385936314
H        28.04446117443475   21.89118470902170   -0.50469502488915
C        29.05117332294770   22.00381148684720    3.79224767129572
C        31.11031672442440   24.66857422742617    3.16443071267232
H        31.07339427281747   24.99191276853344    4.21039647649371
C        29.70825945548016   24.16579158070956    2.75674455769352
H        29.08453553011465   25.02889741064091    2.49292364826373
H        29.81932572609805   23.54694553906125    1.86681971602372
C        31.51593093314006   25.85980588992780    2.30081747972314
H        31.51358941861844   25.58192596180439    1.24841458781249
H        32.51619241123550   26.19705032211624    2.56386628972318
H        30.82720492427589   26.69104486106667    2.43761771447507
C        32.13205412131968   23.54320710540321    3.03858034246862
H        33.09122701073402   23.83913677829541    3.45898837051122
H        32.28151672766244   23.28543340113884    1.99124755491884
H        31.78231235054405   22.65794735590084    3.56196653635068
N        30.96530725703993   19.31611926879618    3.22347369806996
N        29.46643222455746   21.27402261950886    4.81251043567804
C        29.69671618689147   17.91622106585898    5.00706120135599
C        28.99435559831339   17.19995802934589    5.97463086856513
H        27.93581794811017   17.37652946163954    6.11398398078225
C        29.61555440152490   16.25457483394089    6.77161708153364
H        29.04331353704850   15.71675298470108    7.51501126943925
C        30.96942339789928   15.98931754182194    6.62303772849137
H        31.44950355898186   15.24929680984140    7.24681809137149
C        31.69863679787020   16.67554361089591    5.67518083087224
H        32.75322600219801   16.46784148902091    5.56564416262546
C        31.07530552020745   17.63156257677950    4.87264680130448
C        31.75964458014154   18.41775747697046    3.86005261130370
C        33.11165901887168   18.30713121311776    3.53557681359208
H        33.72851673421606   17.59019410788130    4.05247200355092
C        33.65773554739654   19.11247954144949    2.55669356928857
H        34.70335547138593   19.03604289037120    2.29906612315358
C        31.50066752614195   20.08361209968508    2.27564998054465
H        30.82647939445170   20.77684537993460    1.79606357304774
C        32.83054885085181   20.02165068127229    1.90989092624816
H        33.21151542115845   20.66975168264238    1.13672389377222
C        30.22071489004021   21.77665591618140    5.93130402053837
H        30.43154739070117   22.85017940107669    5.80424015559552
C        31.56364596669928   21.04153483489442    6.04052320294225
H        32.14481731720704   21.14781386837270    5.12700852988228
H        31.38842807352153   19.98342255833056    6.21819670673454
H        32.14463673968843   21.44713470389841    6.86643632486623
C        29.45710898459933   21.55889601855708    7.24567646609531
H        29.24298392633832   20.49844823437093    7.36269424396121
H        28.51689229931893   22.10848198808462    7.26251910634030
H        30.05842271678511   21.89131401038021    8.08911944449891
C        26.99155422778605   24.66819202994214    4.42009182796076
H        27.02845950095922   24.99157856569687    3.37414008217895
C        28.39368447031311   24.16561592217602    4.82779206499985
H        29.01725032996240   25.02881158181631    5.09169306234297
H        28.28270110482706   23.54668600050757    5.71767000936311
C        26.58571871107723   25.85932161196563    5.28374376465662
H        26.58807281087165   25.58140129883832    6.33613718338734
H        25.58540672418551   26.19640627239297    5.02067960034072
H        27.27430517308921   26.69068577303396    5.14699398956197
C        25.96998472300710   23.54266296431016    4.54585690880321
H        25.01078033820049   23.83847607916574    4.12543728604680
H        25.82052672817864   23.28481790226536    5.59317179897738
H        26.31986380851884   22.65747899838222    4.02243414827353

