79
CSD_code = QAXMEJ | q = 0 | S = 0 | Stoichiometry = C33H40IrN5 | MND = 6
Ir       11.13132870241478   -0.40311313056284   26.87700773983857
N        11.94726764912040   -1.23136875332481   25.25191032705444
N        10.22843490256616    0.35275923000689   28.48936271293645
N        12.03172612133660    1.54188740990356   26.54846988428457
N        13.15811767413877   -0.03874106824744   27.60185253864875
N        14.23954952704767    2.08934857788499   27.24371827900153
C        10.72462509158860   -2.34500248208388   27.25487607091933
C        10.08088143041407   -2.91444614054137   28.35231768625156
H         9.66826104038878   -2.27805613265707   29.12428628138213
C         9.94726660942318   -4.28528001739366   28.48489592970683
H         9.44395989870308   -4.69676010007346   29.34900423128119
C        10.45365550127493   -5.13862991439019   27.51479460814975
H        10.34643879696665   -6.20821055388213   27.62289914279856
C        11.09462511913932   -4.61405097651700   26.41257718382997
H        11.48956972375208   -5.28248624199283   25.66116095751125
C        11.23287723097083   -3.23220140010931   26.27780549826537
C        11.90960612254813   -2.58540151005424   25.16589432478234
C        12.50242515092214   -3.24708665114156   24.09033746391832
H        12.46414771928004   -4.32292198919845   24.03688199960871
C        13.14086737409652   -2.52718530947094   23.10085868058092
H        13.60745479729830   -3.02940630677920   22.26676114782378
C        13.17026848588887   -1.14196434288729   23.20309977477855
H        13.65798025462131   -0.53716909853427   22.45492684724761
C        12.55931354079190   -0.54553916440077   24.28806522821276
H        12.55955312364191    0.52848957000137   24.40059116598287
C         9.24383772569178   -0.27779041853099   26.17188101674672
C         8.75152190107943   -0.60786084293739   24.91052688634505
H         9.40993851130325   -1.04899503955668   24.17370700710497
C         7.42870632985286   -0.38921725724779   24.56825364609315
H         7.07633122690899   -0.65443734568846   23.58094132942304
C         6.54782923055800    0.16816090834766   25.48423682154056
H         5.51605070249803    0.33691746133044   25.21194555870629
C         6.99632720287247    0.50549270680213   26.74366018131650
H         6.30714503697588    0.94164565349192   27.45231887819693
C         8.32994045260395    0.28739089787330   27.09081536352384
C         8.90265542900822    0.62435491382610   28.38342787914505
C         8.85924039804942    1.48823727670984   30.62722734782672
H         8.32911777012050    1.92981328981058   31.45761895317505
C         8.20409689072206    1.19151217232042   29.44932260449634
H         7.15134514027033    1.39961819227631   29.34810387462890
C        10.21646322669085    1.20640329917725   30.71929716404994
H        10.77125087484556    1.42181444918012   31.61884449328104
C        10.85056161235894    0.64033734784767   29.63127117215783
H        11.90416413740682    0.40652568860809   29.66650234572699
C        13.15863255283770    1.19280357333119   27.13480922336584
C        11.69732342762883    2.90362112955259   26.22227914827024
H        12.55831744495548    3.56269775836875   26.41163719272797
C        10.53510953386787    3.38552268101882   27.10114354048068
H         9.64307189473213    2.80221965173310   26.88620004803355
H        10.32529925013192    4.43534751683414   26.90580362804045
H        10.78231749797324    3.27008999030781   28.15520912825015
C        11.28963451993059    3.01135951326444   24.74927393127469
H        10.49542850983291    2.29645883077553   24.54316158253076
H        12.13125590941918    2.79916431810113   24.09137127765618
H        10.92983855040695    4.01380022904478   24.52837439760733
C        14.33347471899025   -0.73689677921272   28.05194264926181
H        15.21402251801893   -0.07823384122676   28.01616011112023
C        14.61304478917875   -1.94476044902268   27.14786475631756
H        13.78983869252546   -2.65186123766656   27.21369826773293
H        15.53086934355734   -2.44091097665001   27.45741198523687
H        14.72118168274169   -1.63316158689029   26.11025307741832
C        14.13865880483257   -1.23370874435073   29.48971448488368
H        14.04615229077306   -0.40098450207420   30.18572669494119
H        14.98711798446832   -1.84082999613821   29.79751588166311
H        13.23481618147855   -1.83743053440042   29.54183063182069
C        14.80006871438258    2.41031461001191   28.53180520218165
H        15.89037729771541    2.27363087729245   28.53060553516639
H        14.37399072008953    1.73302443550605   29.27516889792807
C        14.47493815532408    3.85017688014827   28.94681251899485
H        14.89925565323276    4.56034765284322   28.24094416656234
H        14.88491524662401    4.05589188686239   29.93277825880423
H        13.39739771451847    3.99479027609616   28.97513868436843
C        14.96623996010014    2.46183492102567   26.05647664264768
H        15.39871808698221    3.45767108671896   26.20513863509880
H        14.26127475910831    2.52192000889500   25.22284528560523
C        16.08055002074892    1.47785970127588   25.67689936753752
H        16.81162534534779    1.39164154841892   26.47804518604991
H        16.59118982196405    1.82380777704556   24.78102288127689
H        15.66162701740480    0.49289493599172   25.48267887086485

