51
CSD_code = QAXWOC | q = 1 | S = 0 | Stoichiometry = C22H25CuN3(1+) | MND = 4
Cu        3.10802675883932    3.01216932273072    9.26642565529463
N         1.59621018393485    3.07169838911992    7.64724250040241
N         4.20607379687927    3.88883565286875    7.75507420515151
N         1.68115761768676    4.02533534093529   10.27788781171126
C         5.94729398160433    4.41974644854428    9.33292721486075
C         5.37028265411065    4.50012816358848    7.96045492580038
C         6.01624200530789    5.18046693928001    6.93339333278203
C         5.42621614129536    5.22725247186400    5.68310108154165
C         4.20618612679465    4.59635122702442    5.48973335916398
C         3.62302696417883    3.92971114009714    6.55646403424278
C         2.32134879910241    3.18383540832260    6.39089467894467
C         2.75095694437044    3.76737209448517   12.42836060346178
C         1.57989534886889    4.16623266788216   11.59765256329549
C         0.43001937765012    4.69408307366370   12.17861436170211
C        -0.62091985018956    5.07873215844798   11.36801340108318
C        -0.49062207757883    4.94674476111676    9.99231592985472
C         0.68286959301703    4.41875334787733    9.48125815756155
C         0.92458223731754    4.31703905850907    7.99719028094129
C         0.68684784414994    1.93255200731158    7.69946221386845
C         1.43313942767528    0.61149481493197    7.93171496574328
C         2.25440669855277    0.66112023791535    9.18914134798053
C         3.62817682575451    0.94646702199019    9.13361298434521
C         4.38720057794237    0.93834244894043   10.30748298138730
C         3.79032425859574    0.65427339436816   11.52366479260577
C         2.43221538627013    0.38194135867755   11.57941630300936
C         1.67164071533094    0.39676685547433   10.42436924817533
H         6.17159892877670    5.41456916739463    9.71149521390412
H         6.87618978188589    3.85213029257999    9.31993826343289
H         5.23449140389240    3.93010772567049    9.99829787669951
H         6.96186686212050    5.66319292653985    7.11957665124834
H         5.90439409459812    5.75033824249119    4.86979174397867
H         3.71772829644653    4.61845480752929    4.52878048645885
H         2.56249495525515    2.17715898721896    6.03767580283951
H         1.71550614363680    3.66703314704643    5.61008167898527
H         3.51418142966959    3.31343809125027   11.79826111471291
H         2.45246142712434    3.05932141720041   13.19774920833191
H         3.16816103856822    4.64213433158304   12.92497668213157
H         0.37183397788769    4.79781966319087   13.25000326971474
H        -1.52595311953550    5.48245289483039   11.79420164083430
H        -1.28498487129653    5.25206276858473    9.33038496716046
H        -0.02187094329385    4.44001828979077    7.45124063588606
H         1.58584060247133    5.14518706811917    7.71975611296518
H         0.08486091445392    1.86089000437831    6.78240323970230
H         0.00781384907205    2.09571028669685    8.54003021823468
H         0.68898635516239   -0.18285551383758    8.00639405520269
H         2.07659853819160    0.38429708052393    7.08044963861704
H         4.13075531089524    0.98886278041234    8.17574999485523
H         5.45301307643381    1.10327919440532   10.25355264333752
H         4.38552212083689    0.62481549606310   12.42333988570065
H         1.96879331455327    0.13884341505438   12.52308220023682
H         0.61731817473208    0.16659162931607   10.47411783991652

