69
CSD_code = QAYBAT | q = 0 | S = 0 | Stoichiometry = C22H40Cl2FeN4 | MND = 4
Fe        1.43888496835248   11.57815996788131    4.98216958538194
Cl       -0.30708678022224   12.45869502934327    4.35465737894155
Cl        3.37073370535045   11.75584699826728    4.01554864457724
N        -0.32757563970919    9.12143716526810    5.41930118943878
N         0.69041672474749    8.94213441794085    3.52582212461330
N         2.33208988717494   11.74821505372792    7.70207666256163
N         3.16933812093706    9.93577287574335    6.86242443423173
C         0.58083264960473    9.73083550281369    4.61706628573014
C        -0.78119061204310    9.74169585824813    6.65016895741585
C        -0.29936938058145    8.99972755484703    7.89684762448221
C        -2.29058270815285    9.97117650034818    6.64949160831230
C        -0.77619464622647    7.95360364962871    4.83520557847295
C        -1.77700535702051    7.01083116064506    5.41121434506539
C        -0.13922944830881    7.84669413988263    3.63557044201831
C        -0.28042148026070    6.76076433374822    2.62662371709053
C         1.51034957240418    9.33526821232164    2.39184555238404
C         0.64025304554243    9.90811383212466    1.27422959752483
C         2.43476643888765    8.22182921378318    1.90626213453177
C         2.37366998436079   10.99270114555713    6.57075331411210
C         1.63162964624834   13.02123654851816    7.71609730743008
C         0.45074422556303   13.03825233390602    8.68641997765547
C         2.58890950947412   14.18794502269301    7.94588716814099
C         3.10061508125073   11.16922429242416    8.69248510394013
C         3.32124845266058   11.72341926122973   10.05631462719599
C         3.62613988887473   10.02969504373699    8.16435462778530
C         4.54813845313154    9.07598489467968    8.84241319779129
C         3.52968956095412    8.95476016562026    5.85411476008593
C         5.03483025366020    8.92951601317216    5.60443026379605
C         2.95304279463156    7.56920507850251    6.14517502378783
H        -0.29264923345660   10.72740827970469    6.63568175087519
H        -0.70655281107160    7.99436001950968    7.96003806630539
H        -0.61207639199311    9.54463652905708    8.78406755421325
H         0.78528293988119    8.93766544872448    7.89731359494417
H        -2.58175034522603   10.45305642340093    5.71968383491322
H        -2.55513731797223   10.63147719714122    7.47147518420170
H        -2.84640425556995    9.04564310530590    6.76301411300430
H        -2.79119523767372    7.30321986176263    5.13545141913216
H        -1.71396930226968    6.96858772921552    6.49395038288457
H        -1.59765920068859    6.00947327646179    5.02625230372574
H         0.57879850665249    6.09018863940828    2.64846823730700
H        -0.37628562629360    7.16518548418119    1.62273613245052
H        -1.17369117969436    6.17972054487585    2.84044570488560
H         2.13744182931907   10.14998055201241    2.77058009320038
H        -0.02134712236234    9.15879929165887    0.84507907631858
H         1.27666482129136   10.30050783732992    0.48624865478665
H         0.03592953029566   10.72215337103805    1.66791797437269
H         2.86428684072330    7.69334788534785    2.75376854154787
H         3.24792280967539    8.66604031741639    1.33922596824561
H         1.92216576667636    7.51141888662774    1.26404878539612
H         1.22045465513618   13.12010307965953    6.69410966035998
H        -0.11046289426358   12.11050040994639    8.61235883804056
H        -0.21170492302049   13.86040014569379    8.42998098872932
H         0.77239344849870   13.17506365779513    9.71559756999481
H         2.95884492179705   14.20607589555151    8.96717992595397
H         2.07276221221256   15.12434749288111    7.75149381182671
H         3.43301436043320   14.11097915204927    7.26435855438047
H         3.62622500772822   10.92552256580820   10.72944929648857
H         2.41979453785394   12.17778350032039   10.45580530687978
H         4.11460735833256   12.47159997413103   10.04823531627672
H         5.58695436277813    9.37280066623157    8.69317631489487
H         4.42377409914242    8.06234137376632    8.47711071334735
H         4.35299332860912    9.07611755382496    9.91320893901939
H         3.05559718059698    9.33140457791102    4.94330573550490
H         5.36953644459699    9.93729528572824    5.37520455276073
H         5.24287891638694    8.30111003892738    4.74294750139133
H         5.59033419473448    8.54495448898696    6.45407752687549
H         3.38895036158665    7.11196338868865    7.02919916964729
H         3.15361708769241    6.91737911496101    5.29889803811865
H         1.87679340761617    7.63124569039314    6.27928363227348

