30
CSD_code = QAYCEB | q = -1 | S = 0 | Stoichiometry = C12H9CdI3N5(1-) | MND = 4
I         4.24283007740621    3.24599130709235    4.42112593302775
I         1.71128455880447    5.29916170954648    0.90439955061034
I         0.37781036867309    1.08607012169467    2.82294263234116
Cd        2.00047632317323    3.31953415009927    2.80456010638660
N         0.64934295171773    4.47948840811322    4.66208331042308
N        -1.23204493694100    8.53366624637153    6.51421456516188
N        -1.47831893991428    9.70178826305067    5.92355488774249
H        -1.87100575714655   10.48479980122455    6.42171790032132
N        -0.64573852764132    8.44159965059737    4.35882395895990
N        -1.77152530861037   11.87100126487689    4.16756659330376
C         0.55932923192133    3.84019618759436    5.82338760750298
H         0.90920657466197    2.81456745213520    5.83438928938908
C         0.04969192771829    4.42912267469565    6.97074140262308
H         0.00107086170120    3.86700072286542    7.89050913000530
C        -0.38552470705824    5.74030775486871    6.91138917731439
H        -0.78702081457921    6.24885468858335    7.77507900338629
C        -0.29589176486010    6.41344793269811    5.69542189776119
C         0.23247836408352    5.73256992610934    4.59855375341721
H         0.31269324084959    6.23788296106517    3.64419170149664
C        -0.72657396793773    7.78698416828523    5.53956886760675
C        -1.12017764582847    9.64070384989705    4.61851178476280
C        -1.25223725760231   10.74011396656186    3.68730737425110
C        -0.84490247742514   10.58739637720972    2.36139276283253
H        -0.43184498382165    9.64513134823846    2.04114877074420
C        -0.98945997718476   11.66507566147660    1.50770977296069
H        -0.68633814143479   11.58847267093964    0.47400626484687
C        -1.52956114414739   12.84403487756637    2.00267149075858
H        -1.65892566451587   13.70842442344504    1.36969799422717
C        -1.90178985479725   12.88931638411832    3.33819992556604
H        -2.32713260926612   13.78649504898022    3.77073259027086

