61
CSD_code = QAYDOM | q = 0 | S = 0 | Stoichiometry = C29H19F8IrN2O2 | MND = 6
Ir       -5.44324084917952   -0.00322450455283  -12.69257055691607
F        -0.24847751157910    1.33119324533000   -8.35132615919089
F        -3.80585033892165    3.39295027833284   -8.79809381141363
F        -1.80496295615541    2.15869194141705   -7.12630049758787
F        -0.91178456488561    3.34535695972333   -8.68339362479062
F       -11.12667538018849   -1.64594359014808   -9.13992884781688
F       -10.44019908710115   -3.63227110794603   -9.57746892796460
F        -7.54603614583616   -3.70717698041279   -9.33918456591280
F        -9.73137993236249   -2.60822826097688   -7.82239114517110
O        -4.17675003895925    0.96643419543546  -14.18315132982835
O        -6.50125087370205   -0.84087522145064  -14.40809883871552
N        -4.02296660262046   -1.41197018886522  -12.64654546083670
N        -6.86214386785394    1.40673452276378  -12.70435690836426
C        -2.95954665481752   -1.16343112237642  -11.84887024497720
C        -6.77216526250779    2.54923932162775  -13.37886857136584
H        -5.82151497108153    2.75146844124139  -13.85268502990584
C        -6.73841101697129   -0.84898232604468  -11.41602100354796
C        -4.32433059441077    0.72579716178634  -11.19646229292358
C        -1.85607532572351   -2.01487971835891  -11.85156826567412
H        -1.01072706522078   -1.80355184561173  -11.21790299267680
C        -3.10666664828682    0.02762174304420  -11.02097505119169
C        -7.96879825629086   -0.15618397971757  -11.33090454882926
C       -10.03883083774054   -2.43504724251810   -9.11742201663763
C        -2.36952165320359    1.60483248396323   -9.36145584994063
C        -8.01438670793359    1.10258731236203  -12.06517533438448
C        -9.10885862722239    1.96327385219939  -12.12745183515826
H       -10.02485112662950    1.70782827947509  -11.62102000631107
C        -4.25844831677823    0.85304177601292  -15.43272685837793
C        -4.01801614299469   -2.49206224461294  -13.42236435207444
H        -4.90259490598075   -2.65410564436670  -14.02267903166376
C        -9.03325110258390   -0.65983360145110  -10.59180183113098
H        -9.97312876260755   -0.13363797288484  -10.53535344599068
C        -8.90239339941655   -1.86139697356140   -9.91461680264519
C        -1.84929382903028   -3.12769135213344  -12.67081804964150
H        -0.99953975614489   -3.79271137698737  -12.68496300856267
C        -1.34434454201079    2.10846441089742   -8.38607740642798
C        -3.57286968311934    2.28887592149931   -9.52534052847467
C        -2.95710666103215   -3.37641931070493  -13.46962057041488
H        -2.99856277180843   -4.23792683868559  -14.11605931729456
C        -6.62668121893520   -2.05005948420995  -10.72431630248428
H        -5.71461911047985   -2.62688739266148  -10.74191545250768
C        -7.81858391996611    3.44659258077023  -13.47625432162070
H        -7.69818954377562    4.36033403932877  -14.03512434833211
C        -2.14500257920166    0.46577468656036  -10.11747934948052
H        -1.21321395856780   -0.06299943663049   -9.99240594394076
C        -3.21662644041994    1.59539267219423  -16.24750252955743
H        -2.54313958883623    2.12967523246478  -15.58208584124227
H        -3.69939528206627    2.30224216554724  -16.91912717883503
H        -2.64509185539502    0.89144513997407  -16.84872796886726
C        -9.01522038720809    3.14263942678276  -12.84154453443913
H        -9.85615981009632    3.81638853751646  -12.89960620063770
C        -7.68835788516934   -2.54192744273769   -9.99041164523404
C        -4.53219458611926    1.86236150257808  -10.42277562040232
H        -5.44152427905991    2.43839232188858  -10.50169349937129
C        -6.24938155169455   -0.63926970450988  -15.62339562328200
C        -5.21050814076087    0.12919450198548  -16.15583874653503
H        -5.13601143765755    0.16728687715430  -17.23211659118216
C        -7.16468786861376   -1.31833132971700  -16.62416444976738
H        -6.59233753468365   -2.00280459666147  -17.24805391294279
H        -7.62787352096918   -0.57535273982008  -17.27064784284370
H        -7.93834672941180   -1.87122800052267  -16.09649717576972

