67
CSD_code = QAYDAV | q = 0 | S = 0 | Stoichiometry = C30H33ClNPPd | MND = 4
Pd        3.40503216994243    5.42027184105999    1.38922364712423
P         1.88775946166275    4.37349477547968    0.16977441941101
Cl        4.73150998555410    5.75465159368864   -0.54301379884195
N         4.92971412275862    6.28379505156755    2.53500648188908
C         2.43069867465973    5.40319239807223    3.17574545079099
C         2.88000786103980    6.72409874550287    3.81329759145620
C         4.43635572739691    6.67177697344354    3.86591839535923
C         2.31292511242541    6.87153959041775    5.22960891362170
C         2.38106816596846    7.89341191494647    2.95125145716050
C         5.08150687014928    7.92729981291854    4.40188927973694
C         5.32482809411110    9.04002592977780    3.60360505156306
C         5.90496440643640   10.17814540372656    4.13611584529802
C         6.24962901426622   10.22632356854450    5.47525540867742
C         6.01321403869790    9.12514574685206    6.27996196210887
C         5.43798014085049    7.98706225277050    5.74524527858113
C         6.14015916656688    5.46798724348350    2.56957922112707
C         0.18416932665398    4.01546732087811    0.70713430559180
C         0.02739311244515    3.14166182018239    1.78016791221189
C        -1.23374280643082    2.84348067108313    2.25758496646706
C        -2.34968524521457    3.42304730486292    1.67268994798193
C        -2.19824702991993    4.30045098313825    0.61252967993695
C        -0.93566173737306    4.60012027668667    0.12956183603448
C         2.51320839354302    2.70708476955059   -0.18883957756153
C         1.75347335730355    1.73386378821959   -0.83094198985920
C         2.29304438009875    0.48071284361144   -1.05763184926749
C         3.58210841474398    0.19090397152703   -0.63797413648913
C         4.33440515567114    1.15175760255558    0.01812676070059
C         3.80143905329858    2.40744672990779    0.24727832493783
C         1.64978267796222    5.24046171287269   -1.40630500409351
C         1.57849014981919    6.62754262379920   -1.29132918907754
C         1.41766115689734    7.41072492402097   -2.41644823752065
C         1.33886949153017    6.81057792992134   -3.66439769666905
C         1.42639942566480    5.43405095780284   -3.78213714305402
C         1.58185018898278    4.64279843855440   -2.65590127423692
H         5.14104566214340    7.11802008738890    1.98027936719779
H         1.33571488119836    5.36996557447848    3.13255107873674
H         2.76968535228986    4.55036680762302    3.78217140442503
H         4.68648454563369    5.84731027992507    4.54795385163938
H         2.63566001471218    7.80742873683569    5.68240592940288
H         2.64009787898942    6.04896406911260    5.86265148023801
H         1.22595832214627    6.86078216445320    5.19562270921280
H         2.68564826808761    8.85009508897736    3.37258866261310
H         1.29281337419445    7.86809386155777    2.91107655060182
H         2.76105370337873    7.81306756998779    1.91905120007796
H         5.06405474605849    9.03835533097526    2.55421447076163
H         6.08732529103301   11.03142156764939    3.49944795616147
H         6.70239979118373   11.11518444147290    5.88842965382822
H         6.28169334548835    9.15032725701530    7.32585465815585
H         5.26298329271758    7.12930767723646    6.37919380985120
H         6.95697497942372    5.97608405192754    3.09902150894056
H         6.45450727010259    5.26529212407749    1.54250079332604
H         5.93100926819888    4.51978995083711    3.07417198197659
H         0.90912266771034    2.70327952197113    2.23060730255218
H        -1.35131564085556    2.16187917623009    3.08734106936260
H        -3.33651837896962    3.19213532682100    2.04612571182155
H        -3.06684252752784    4.75456914590383    0.15810059713046
H        -0.82004854731448    5.28568993230987   -0.69850006987419
H         0.74001412318222    1.95676892262528   -1.13747243185112
H         1.70621752630673   -0.27448206661320   -1.56021042853695
H         3.99793529338501   -0.78968057901838   -0.81786988376230
H         5.33538751948239    0.91885581395091    0.35068078076187
H         4.38309478454924    3.18053058220157    0.76212278221279
H         1.67467551215105    7.07372543491092   -0.30091230961397
H         1.36824248341936    8.48629924990995   -2.32867586309364
H         1.22461772362075    7.42070622889066   -4.54837827277896
H         1.38312762596945    4.97265312375196   -4.75806506869887
H         1.67196936956160    3.57043603291319   -2.75201322320830

