53
CSD_code = QAYHUT | q = 0 | S = 0 | Stoichiometry = C20H24Cl2N4O2Pt | MND = 4
Pt        1.92442029348606    1.37238293434512    2.67318932576307
Cl        0.58293496233562    0.77477205849949    4.47281500194603
Cl        3.21352448938981    2.01813827010661    0.86356676334562
N         1.96583476319446    3.19824487842396    3.40527448239654
N         2.36922215121460    4.91395697326738    4.91057666628697
O         1.65741513166129    5.35270532528128    3.73523099222812
C         2.69614067319690    3.51070424628468    4.63103309921702
H         2.35463485565541    2.84892470775708    5.44113185583113
C         1.45305837898754    4.28227362081425    2.96409381552981
C         1.51811468691385    5.10129144506977    6.06560536760739
H         0.62632987730001    4.46297538186331    6.04826494152544
H         1.21964841861217    6.14709946005942    6.09778319463722
H         2.11478479151046    4.87117195306125    6.94510045371742
C         4.16528000006409    3.28452512157030    4.35040040494555
C         4.62044133229597    1.97514258579195    4.24680222332117
H         3.94881070608973    1.14698491567752    4.45311670317197
C         5.93716167325408    1.73137457682085    3.89991383922239
H         6.28578250908640    0.71370998388256    3.81671278026700
C         6.79825811542769    2.78865664920994    3.65765932851169
H         7.82417203724180    2.59609357280142    3.38034953423202
C         6.34396632964210    4.09169981277494    3.76533908896034
H         7.01367201680156    4.91681528571798    3.57309142668413
C         5.02609345980799    4.34285669461368    4.10528600098785
H         4.65870034920069    5.35449869007054    4.18221839925998
C         0.67745253832907    4.44616945180658    1.71437017732241
H         1.04644466472167    3.73748965277624    0.97347468844513
H         0.78243578341710    5.46502313873101    1.35207866377000
H        -0.37613762164281    4.24514158743161    1.90679101053245
O         1.09615878624638   -2.33435636481062    1.07447657817530
N         1.85877656845472   -0.45228590426206    1.92768830295267
N         2.52746099729723   -2.51124371060091    1.10017745517019
C         3.04559038832395   -1.25301066094268    1.67972172285363
H         3.69471802984134   -0.72023885365318    0.96529352357110
C         0.83235180460272   -1.12645988352827    1.56656138516260
C         2.99359215774461   -2.78617058044739   -0.23864517166734
H         2.86728613949569   -1.93519058456795   -0.91978470599887
H         2.44407184348498   -3.64519360615539   -0.61761378537977
H         4.04806842523472   -3.04130584921390   -0.16376040717242
C         3.81700407830076   -1.54076580101137    2.94683217998583
C         3.16049918683689   -1.73096537494156    4.15629204035380
H         2.08463192194504   -1.65542343602556    4.21072110402660
C         3.88693322987797   -2.00406724091598    5.30263238596302
H         3.37081068130017   -2.13574517850631    6.24155980222426
C         5.26577223660109   -2.10932983477381    5.24557344753727
H         5.83042805483808   -2.32501145751791    6.14050429074205
C         5.92119118079862   -1.93782594517234    4.03755515594914
H         6.99707247116339   -2.02438709294107    3.98825757621762
C         5.20022520337716   -1.64888757445687    2.89254187143814
H         5.71145495193706   -1.49797963590292    1.95265105229454
C        -0.57944542453650   -0.69062338506576    1.64885203015349
H        -0.62585721704878    0.39354523246062    1.55127463500516
H        -0.98078359784018   -0.95911410262058    2.62600917949881
H        -1.16560946545989   -1.17798614894142    0.87465812129427

