77
CSD_code = QAYJOP | q = 0 | S = 0 | Stoichiometry = C36H30Cl4N3OP2Re | MND = 6
Re       12.41530620898511    0.47173926080734    6.12669765495412
Cl       11.42392470002079    2.36226026957926    7.05948956416453
Cl       12.60197930401091    1.57920562308507    4.13229138317927
Cl       10.37244559716308   -0.42656353220681    5.56559304357591
Cl       18.49037664033870    4.04309198009989    4.60371237476287
P        13.28029675527271   -1.50260095638156    4.98476994908487
P        12.83486298285376   -3.45707264399312    2.67773864135182
N        12.35840773662740   -0.52840201255672    7.96198930279103
N        14.54217789524734    0.18236502344217    8.06573523888430
N        14.18937523798375    0.79224154864543    6.97293643045572
O        13.80501752339188   -4.23408130961236    3.45831721429418
C        13.55072053339724   -0.52386186672633    8.62457656015549
C        13.72720454453864   -1.20054625567756    9.84211160811573
H        14.69620815433617   -1.15916383689538   10.30993444102592
C        12.66368397488884   -1.87345883509474   10.38544071148280
H        12.76314388515216   -2.39993859554081   11.32187475747708
C        11.44159111433765   -1.86286334999646    9.70691438059994
H        10.58244685187582   -2.37634199980425   10.10520411902477
C        11.33595152854252   -1.18311753212749    8.51634816148420
H        10.40568212331240   -1.15955435178283    7.96515112964121
C        15.20921516724217    1.58648877790172    6.43166887699078
C        14.91598810367072    2.81941563557501    5.84844424963300
H        13.90179040091020    3.19081948841107    5.85747389924425
C        15.92622441963274    3.57885160706903    5.29398021395636
H        15.70318524912271    4.53198033552110    4.84171332054994
C        17.23195819346743    3.10996756513587    5.32321986060272
C        17.54162714426333    1.90147323348553    5.93197793567078
H        18.56274480671156    1.55585849917304    5.96027031976075
C        16.53329558986563    1.14709497011927    6.49230053402647
H        16.74732003901205    0.20240090573751    6.96658037798989
C        15.04050408020217   -1.50488302349183    4.54024984305991
C        15.50245671766698   -0.35405473458830    3.90148764994558
H        14.82262983418884    0.47044307162860    3.72790649662284
C        16.81890635146871   -0.26934180048128    3.48819547153874
H        17.16752196791300    0.62302802214295    2.99047939474659
C        17.68346986227752   -1.32765095877559    3.71675879217521
H        18.71283681011774   -1.26331281854030    3.39650284069886
C        17.22509250193141   -2.47207281072110    4.34878540217464
H        17.89544292049235   -3.30228586251386    4.51474251577489
C        15.90775660930711   -2.56803861715934    4.76249576841862
H        15.54957816144329   -3.47661206921587    5.21918732886926
C        12.93199933758504   -2.97131387768242    5.97539686590579
C        13.75871012686568   -3.27483166949226    7.05549041792842
H        14.65157782382562   -2.68925175769633    7.23063576767445
C        13.43503996474643   -4.31715095467252    7.90319384700979
H        14.08408841099151   -4.55478313433769    8.73325255272518
C        12.27940538284441   -5.05122944791656    7.69085937286105
H        12.03008986239732   -5.86742371786513    8.35249160895002
C        11.44005847616557   -4.73165962452477    6.63656570577538
H        10.53176591751730   -5.29359536961124    6.47638928275803
C        11.75605069058960   -3.68791763531555    5.78680582263241
H        11.08388478731068   -3.42568459672694    4.98311483957144
C        12.47667324123343   -1.76770818435123    3.36649245228435
H        12.86199991087117   -0.99378707702018    2.69436809178194
H        11.40066861776534   -1.61059010383887    3.48271684265421
C        11.21301142555932   -4.25125378885561    2.49623802161132
C        11.07805864501835   -5.55064069491461    2.96380455915083
H        11.93510633033525   -6.02515385707795    3.41998200738270
C         9.86238740313571   -6.20126908250737    2.85164732837956
H         9.75328501388591   -7.21188411233142    3.21661562131227
C         8.78474478112065   -5.55243512972291    2.27043266092134
H         7.83412591017349   -6.05746733564753    2.18340482322687
C         8.92047538485225   -4.25522998904421    1.79947874919923
H         8.07773600217082   -3.75385833157634    1.34703038335391
C        10.13375323618576   -3.60096214982174    1.90965831316604
H        10.24691356113010   -2.59062312162132    1.54169020799470
C        13.43590725686807   -3.10301798290543    0.99219362398524
C        14.65438801728598   -2.43968759004666    0.91205096399422
H        15.15715771881667   -2.15010750623624    1.82487216225864
C        15.21630753331891   -2.16894119547924   -0.32104129760919
H        16.16147270687305   -1.64993497470111   -0.38092658148087
C        14.56422156095539   -2.56725738867864   -1.47774936439706
H        15.00074277798196   -2.35692388290553   -2.44284687106988
C        13.35722002201699   -3.24122802933128   -1.39811467770231
H        12.85491741580988   -3.55899774050590   -2.29997987507142
C        12.79038286088631   -3.51284274008576   -0.16403600803496
H        11.85132366173075   -4.04406226862829   -0.10132598001889

