30
CSD_code = QAYJOS | q = 0 | S = 0 | Stoichiometry = C15H10NO3Re | MND = 8
Re        1.68869308304551    7.42788653852157    4.85507810040527
N         1.39064257875052    3.90396626285144    4.68937893167515
C         0.22524992803237    7.15377261479627    3.60120379747953
O        -0.61919109584922    6.93199448312651    2.85612282844998
C         2.40275656397733    8.88935133907853    3.78599693138917
O         2.89503891461426    9.71368864759658    3.16187994972514
C         0.62254588317549    8.63481293068963    5.94375760481698
O         0.01709391859011    9.30168628784645    6.65295404794279
C         2.06649810562162    5.00895656536252    5.10558796617867
C         3.18690323369553    5.60004292076266    4.44999288849471
H         3.61233786655286    5.24354300660960    3.52494035706308
C         3.79205333641991    6.52106425049124    5.34779209132404
H         4.74702493545726    7.00381662451538    5.19576201386689
C         3.02392858441511    6.55828686226478    6.53604994315267
H         3.31644583144016    7.02799257370023    7.46412782889569
C         1.92252002529566    5.66506206508385    6.37281586665462
H         1.27648191165161    5.31713290790595    7.16660774698981
C         0.12725078518596    3.81859389811544    4.61877296221341
H        -0.51717545232085    4.69655520298381    4.78520016266629
C        -0.54391511614426    2.58356232870691    4.27583237515655
C        -1.93388326292029    2.56311117236620    4.15037527718766
H        -2.49701408677983    3.47141366146490    4.31146739093102
C        -2.58458623292621    1.39064957072948    3.81840153242567
H        -3.66009099067568    1.38041288601590    3.72178024406101
C        -1.85881862466597    0.22862932247340    3.60805049151328
H        -2.37001182406572   -0.68646716931548    3.34805761076557
C        -0.47692666625838    0.23997741040683    3.72975366738903
H         0.08578814044342   -0.66681505629312    3.56395267589391
C         0.17919525650855    1.40763944008964    4.06161009076743
H         1.25346446973395    1.43618045105487    4.15929662452526

