29
CSD_code = QAYMEI | q = 0 | S = 0 | Stoichiometry = C13H10S3Se2W | MND = 12
W         0.41573537079190    1.09311831761736    4.12522305379832
Se        1.09536813328747   -1.14838038690907    5.09834171437738
Se        2.21465511194685    2.05364069134667    5.62882607593872
S         3.16198604397724   -1.97203890745854    7.34761629695866
S         4.11477862577131    0.75829481452047    7.80113768485277
S         5.26889183071203   -1.47735913924344    9.39022955038176
C         2.44021625734289   -0.71108168010584    6.38087200786589
C         2.87743521899158    0.54206169169946    6.58961552774037
C         4.24452732981603   -0.93025182374416    8.24838352507722
C         1.63158310058693    2.17213461347429    2.51864899663744
H         2.19700380175982    3.08961657393764    2.62066946947510
C         0.33476796200105    2.04132418885106    1.97966829056529
H        -0.28514129443591    2.85749265383996    1.62851637176858
C         0.06511575443510    0.65854264304559    1.77290746804461
H        -0.80477129160822    0.25014990351140    1.27623549539348
C         1.18835498497978   -0.07130993063784    2.17601934952804
H         1.33629734997083   -1.13703157332437    2.05562726848819
C         2.16271610228767    0.84668414330493    2.67525574220074
H         3.20394877119775    0.60532709063154    2.87167150112909
C        -1.04306476204843    0.99786095167206    5.94081107929030
H        -0.94037303683077    0.47434645066168    6.88664463517863
C        -0.86830448987129    2.39344907858513    5.75896621837056
H        -0.50031846011403    3.08197591146035    6.50919408990697
C        -1.29673329754938    2.73110088128073    4.46896596407322
H        -1.36734589642296    3.73510048936368    4.07298996341940
C        -1.81318830941339    1.55071601957103    3.85399819738170
H        -2.40837944084903    1.53322326547869    2.94813769426984
C        -1.66164151275408    0.46780227558912    4.75870134791572
H        -2.12611995795824   -0.50680920802006    4.68182541997238

