29
CSD_code = QAYMAE | q = 0 | S = 0 | Stoichiometry = C13H10MoS5 | MND = 12
Mo        0.42803492441598    1.11085147950710    4.20228903114064
S         1.07816282519323   -1.05084158130803    5.15427282694219
S         2.12039002336896    1.94963737946328    5.76333649579565
S         3.04636222882025   -1.99315230709141    7.23614935220907
S         3.98989233001726    0.72540960830387    7.78855216337990
S         5.16795370926328   -1.56446127714648    9.27476666919592
C         2.30761681385906   -0.69799409541910    6.32182337081112
C         2.74122471961690    0.55216349069016    6.57584782060884
C         4.12992859479743   -0.97845416516755    8.16457851400585
C         1.80486633356759    2.18958337324199    2.68927658126294
H         2.41784696515049    3.05657555297756    2.88564536821981
C         0.54291414025354    2.18693891459213    2.07489459130338
H         0.00918886827400    3.06005927345371    1.72705220017628
C         0.17008379549767    0.84246436845268    1.82456010167032
H        -0.69800795871354    0.52174226880054    1.26722664586255
C         1.20058637431290    0.00982825368434    2.27618065938094
H         1.26562524234541   -1.05903103354740    2.13406093940902
C         2.22012023253266    0.83293652481536    2.83158664035674
H         3.22852609782268    0.50704295474182    3.06836139532120
C        -0.97361820709750    1.17742150887078    5.98952057450607
H        -0.80858730609477    0.84926739052598    7.01140486542463
C        -0.88781966253211    2.52397209668934    5.53564761043349
H        -0.53551182686311    3.36130032248936    6.12006037370570
C        -1.46939009400030    2.58963880484707    4.26404162857634
H        -1.64521369430412    3.49393392002078    3.69973992383743
C        -1.93687412394055    1.29611462377317    3.92147965405330
H        -2.53744256826390    1.05592732192315    3.05558950458025
C        -1.64107961237148    0.42369839330374    4.98004284063439
H        -1.98087916490351   -0.59627336548140    5.08111165720512

