93
CSD_code = QAYNOW | q = 0 | S = 0 | Stoichiometry = C42H40N4O2P2RuS2 | MND = 6
Ru        3.20579814443307    1.07535594834240    4.07893107585904
P         1.03303560777099    0.95506269702359    3.24571228428677
P         4.21315501629377    0.29834203868472    2.14946838730307
S         1.79250345128335    0.99876537519189    8.37494650945214
S         4.32740390701886    5.11170001189969    1.94050277654722
C         7.91599787130603   -0.79058384272467    3.41704339819479
H         8.33018424034122   -1.61728172753665    3.97562262834759
O         3.67816490731082   -3.31616362334102    8.35343337148030
N         2.44670502405187    1.82479739988086    5.82149175331576
O         8.72716047570640    1.44172600688807    6.77440590287188
N         3.34685224179099   -0.62304106260724    5.20437325445033
N         5.02596712569572    1.34996234415304    4.92775744096238
C        -0.19326157062944   -0.18569355552586    3.97890940235442
C        -0.64196789812407   -1.35705582082678    3.37714257785336
H        -0.29081122201790   -1.63884789810838    2.39456666945348
N         3.25021170752155    2.90604676995650    3.20839677829260
C        -1.54239601799921   -2.17521322127494    4.03967477050816
H        -1.89357062687811   -3.07951829348279    3.56301234566591
C         2.80558273229211   -3.50399701566034    1.61268645776124
H         2.02019490450916   -4.11586087770300    2.03268059064055
C         7.08496813416248    2.49935631720547    5.31102086227347
H         7.68491506554314    3.36463362009983    5.08616843239663
C         2.18382892426005    1.45338734205923    6.90710503301770
C         0.89696909489167    0.57320049024372    1.44267631417018
H         1.38430530940383   -0.39076862868429    1.27211001351786
H        -0.15963409328496    0.46535576322116    1.18439326998069
C         4.41957043954940   -0.64775861037663    6.03315490958712
C         6.65054133193496    0.43476007080303    6.42155510360789
H         6.96800976450939   -0.34440897430196    7.09269439930946
C         2.77427377544390    1.14050727644335   -0.20104687871342
H         2.88743010144063    1.74186518455991   -1.10721598263823
H         2.60516932899518    0.10613445099723   -0.51602258401500
C         4.63855368950403   -3.22221473865721    0.09107214261957
H         5.28371376291059   -3.61930484107397   -0.67899419550699
C         3.99815844873975   -1.41292126866684    1.53822021579042
C         0.45585080571311    3.57915071075428    4.07437779052757
H         1.42599346685526    3.55703080846461    4.54957716972955
C         7.52512650815415    1.48996408927959    6.16937670196092
C         6.02289324612887    0.28565376860469    2.38316628052769
C         3.62685863766473   -4.00958362852948    0.61931085318201
H         3.48357368157679   -5.01735864232605    0.25862412682648
C         4.09141023190630    1.24495310575779    0.56467792654244
H         4.26667806639172    2.29421280405308    0.81959215996317
H         4.91053626379756    0.89856800531178   -0.07601500026022
C        -0.34367792502196    4.70510008400321    4.17467727515752
H         0.01186103084521    5.56567299816738    4.72170477811714
C         8.73252724309839    0.25483609519806    3.01517565633634
H         9.78571785345764    0.23942736433701    3.25493866766092
C         2.38498058874710   -1.51164019456066    5.44406705552263
H         1.51863148689267   -1.47381298927171    4.80002417300799
C        -1.53900611867782   -0.67995009266849    5.91560989641650
H        -1.88013783461331   -0.41776744645257    6.90577243369343
C         2.99369646263203   -2.21125853474702    2.06886384866658
H         2.36247716778383   -1.80329014276710    2.84678246676449
C         4.82724063780758   -1.93122387658513    0.54745033120327
H         5.62712262935281   -1.32661868748153    0.14303388726081
C        -0.64670168051396    0.14203553944897    5.25663616567952
H        -0.27907469396262    1.04398180608528    5.72737995005337
C         3.50966290192880   -2.47810027930492    7.31606957348829
C         4.53091074668279   -1.56239335434989    7.06867461321307
H         5.37791090346809   -1.55196583982478    7.73256185991800
C         2.40579031457337   -2.44034015586064    6.46219154449785
H         1.55856828468353   -3.09368892902310    6.58583957780559
C         6.57021378827514   -0.77273031913231    3.10728601724513
H         5.92719969792364   -1.58643178094709    3.42251689155310
C        -1.59241221274275    4.72845005375808    3.57956857864366
H        -2.21445759109959    5.60842468920711    3.65455276413776
C         0.01361485747529    2.46844513349657    3.36769699849071
C         9.64509670803856    2.48543565937731    6.53007091799720
H         9.89367855210420    2.55376716373459    5.46691016774076
H        10.53823411903841    2.22922273443848    7.09690371470244
H         9.25834905356509    3.44722539993079    6.87843382444834
C         2.61130133383744   -4.16854192153721    8.70921177667847
H         1.70984635178799   -3.59600767955075    8.94382624334095
H         2.94475849200454   -4.70060153364764    9.59816173257682
H         2.39377195789464   -4.88911537819290    7.91470434920932
C         6.84414852374901    1.34188439151607    2.00261449322005
H         6.43475219706340    2.18836114053992    1.47190834457408
C         5.84523919497777    2.37518909528028    4.72071347609272
H         5.49847568254978    3.14300429056348    4.04275476820384
C        -1.25666681732781    2.48731599533692    2.79424949845156
H        -1.63476398550518    1.61531324008199    2.27827117916848
C        -2.05034926687912    3.61316886205069    2.89554796830979
H        -3.03208253896847    3.62073776372887    2.44381084510488
C         5.41025027832897    0.39829893505013    5.80159295232343
C         8.19377036859144    1.31758289940945    2.31038827634408
H         8.82527501619340    2.13791914080765    2.00114406769735
C         1.56025705981856    1.65280002595619    0.57730922244634
H         0.82482710211050    2.03489864620780   -0.13315187314803
H         1.87001700339152    2.49425376864267    1.20464509184224
C        -1.99126121552089   -1.84054613483688    5.30573622714943
H        -2.69225255846584   -2.48376466189116    5.81728142436288
C         3.71816484071506    3.85582088783986    2.69764886657145

