83
CSD_code = QAYNAI | q = 0 | S = 0 | Stoichiometry = C40H36N4P2Ru | MND = 6
Ru        4.12691701370637   10.24112774107664    2.53916747772013
P         2.71087433203524    9.18016786163072    4.04636882913207
P         2.44976038638778   10.55071844476419    0.97917298611027
N         3.22525846196732   12.84539166011488    4.01203114936504
N         6.14374982610855   11.69162787784549    0.63549995921159
N         5.01815102580360    8.48002907291288    1.96628592073730
N         5.69301498041607   10.16931392980513    3.80782393633969
C         3.51013628368076   11.92810545252669    3.37155498327392
C         5.35297510402342   11.22487298957178    1.32829447007274
C         4.71089977896027    7.68885918217207    0.93404395404693
H         3.98950044252476    8.07758709474387    0.22937219175400
C         5.26705959178715    6.44670524486380    0.72240927344073
H         4.96430521393398    5.86434518689503   -0.13308339338882
C         6.21089591354744    5.96880543664621    1.62602258772585
H         6.64965761139055    4.99006627468808    1.51019982873606
C         6.58820855329853    6.79660216348613    2.66179970248463
H         7.33500033939714    6.47182221250758    3.36771513225898
C         6.00166262968344    8.05585942036833    2.80065133842356
C         6.41526556935472    9.02454404909732    3.80060934622203
C         7.50576603118805    8.84389810486049    4.65334385318053
H         8.06116991759092    7.92069508104453    4.63177207534940
C         7.87763881324675    9.85234705400251    5.51513077748414
H         8.71773432314248    9.72780390026369    6.18027744967311
C         7.15144143194979   11.03831019183309    5.48958217140789
H         7.41307728623276   11.86620744399324    6.12818031134141
C         6.08009013483986   11.15008501120833    4.63096074229556
H         5.50070284160495   12.06373184080735    4.59758149672149
C         3.71372516929990    8.69887415734435    5.48955531873650
C         4.02862534469729    9.63195892327247    6.47477005995851
H         3.59158218582240   10.62002707668157    6.43816490176280
C         4.90714694121703    9.30160388133101    7.48972308354221
H         5.13959002883922   10.02832390055662    8.25433578522953
C         5.49638956474599    8.04807282948024    7.52345728242083
H         6.18421580374766    7.79428404688469    8.31634753759700
C         5.20638647364631    7.12347214998500    6.53413526504491
H         5.66964972801888    6.14726038963683    6.55101145025438
C         4.32732813521918    7.44809920907494    5.51794853049064
H         4.10644064159760    6.72334042812167    4.74358050654783
C         1.85677719020062    7.58408989405113    3.75306573453211
C         1.23873944684226    6.90074084044007    4.79721155495628
H         1.27461945818990    7.30290043862216    5.80032586951928
C         0.59360448765124    5.70264390189528    4.55769134715998
H         0.11440971874895    5.17891049575102    5.37216828852138
C         0.56176664108183    5.16923441080639    3.27795842781240
H         0.05693831384718    4.23190358727961    3.09635617285639
C         1.18164713028495    5.83763727776708    2.23671377797153
H         1.16618677664250    5.42531058038164    1.23798534198247
C         1.82493388690570    7.03941511578809    2.47633733784780
H         2.30979284152809    7.56559864250605    1.66457176928160
C         1.35388485867144   10.12927122110326    4.87303455738541
H         1.09854693329932    9.60957739159396    5.80344759146640
H         1.77698998024482   11.10744299223003    5.12119871949453
C         0.09030464642683   10.34187679097908    4.04082324052715
H        -0.61319027549445   10.89710118682977    4.66758151766190
H        -0.37330796795697    9.37697827991747    3.81001246203996
C         2.23086224361224   12.20393439985035    0.21651650101813
C         2.98471010730658   13.30052146331017    0.61106512149332
H         3.72785800206938   13.19102080265250    1.38708855204557
C         2.79315836430974   14.53240921013334    0.00807168935521
H         3.38585204061370   15.37729806978146    0.32486282841038
C         1.85330091748466   14.67949127612287   -0.99594931497790
H         1.70512896967247   15.64045916145652   -1.46669195019189
C         1.10642192023816   13.58568100723020   -1.40502478240156
H         0.37870176051730   13.69157240294618   -2.19709317019348
C         1.29499352164271   12.35604174586508   -0.80613253375031
H         0.72128933730658   11.50459418617321   -1.14841646142621
C         2.47985549846027    9.61520165987169   -0.59682094051498
C         3.52427029755295    9.94802677520545   -1.46130040242399
H         4.22295843139810   10.71982493622456   -1.16093818321036
C         3.67059738961305    9.29196066286212   -2.66741555415438
H         4.47960077346068    9.55866571205800   -3.33101436626961
C         2.77959615917185    8.28999424152536   -3.02332572510370
H         2.89057172983016    7.77580720293169   -3.96672839659537
C         1.74863998944845    7.94701315515598   -2.16606621392297
H         1.05446461804873    7.16514787845754   -2.44043160587471
C         1.59678763776942    8.60242615610369   -0.95471363837925
H         0.78708388801873    8.31853354030037   -0.29769467626799
C         0.71338191197093   10.24924192199090    1.55517700121710
H         0.04412044464756   10.42997656310873    0.70907654894365
H         0.62975025094661    9.19422819057588    1.83244044142648
C         0.31677151068322   11.13105463100482    2.74729650403083
H        -0.60735223529541   11.65657861692731    2.49812836559227
H         1.08178659781078   11.89401446616523    2.92315237844827

