52
CSD_code = QAYRUD | q = 0 | S = 0 | Stoichiometry = C24H21N2O3ReSi | MND = 6
Re        0.25603069543805    0.87209714496250    5.49954172197693
Si       10.00473657907889   -1.81885800805367    7.18836171214289
O        -2.36549702249619    2.52289976638935    5.28168720630690
O        -1.03838654000462   -1.47980734030242    7.04756717720066
O        -0.07733156703675   -0.51584262132487    2.74899321457383
N         1.39887799557656    2.55206627502431    4.75147569169457
N         0.83430837912953    1.99284590397946    7.25995896274838
C        -1.40812371438009    1.90166969224004    5.35684928499207
C        -0.58174105025098   -0.61887668038954    6.43740951604392
C         0.01180564426656   -0.02453671530640    3.78468441378396
C         2.14539035141906    0.00101477822852    5.72980063273748
C         3.31624546896959   -0.27300810143379    5.93605133566534
C         4.60604980405081   -0.59454353735818    6.16249000406513
C         5.77992065354516   -0.85149091672666    6.37919032132951
C         7.06964712591366   -1.14731527624286    6.62050937337061
C         8.23969929779313   -1.40724910696900    6.84199524601640
C        10.10002092749984   -3.54676620816609    7.98992255832832
C        10.98594959405376   -1.80238689334184    5.55230105549829
C        10.71423892655673   -0.50818610477889    8.38162068674111
C         1.65708866399391    2.78425247709662    3.46367141947360
C         2.47386949437019    3.80417033419477    3.02563057365266
C         3.07475892646123    4.65076598469947    3.95588761078340
C         2.80157668193735    4.41107670248824    5.29314561364810
C         1.96695373438898    3.36134244268204    5.67007927086680
C         1.64837007023494    3.05236843483128    7.06891042765200
C         2.14385675781190    3.78771108261565    8.14311645814787
C         1.81712627554352    3.44358160747706    9.44533022287122
C         0.97674661538246    2.34507294483553    9.61748631165318
C         0.51733919082540    1.66148354904892    8.51229791240712
C         3.98887208430792    5.74927383002084    3.52797199265116
C         2.35906902142472    4.19892002493660   10.61213229311188
H         9.53275464328368   -3.58246153835848    8.91526071823614
H         9.69518113453255   -4.30749712592814    7.32919030075733
H        11.12529501060309   -3.82261591807478    8.22095581848969
H        12.03775241402712   -2.01898984249169    5.71774871651087
H        10.60239407294703   -2.54426353071796    4.85829308701386
H        10.92216493216597   -0.83435508003645    5.06416621718186
H        11.75181962136047   -0.71539025113001    8.62829529311860
H        10.67200157205771    0.48533793771897    7.94494139021142
H        10.15421424733796   -0.48091489662027    9.31171198850417
H         1.18631921574445    2.11970272553310    2.75024389029170
H         2.64439868926113    3.93823428096133    1.96925606662808
H         3.24891125072011    5.04476495218351    6.04163142017826
H         2.79179498473980    4.63177823132473    7.97089678264719
H         0.68455276140381    2.02520022313343   10.60505601820690
H        -0.13633083147239    0.80700328525492    8.63407318893068
H         4.98451409022768    5.34381293975848    3.34615699727917
H         3.64031011830033    6.20201892440997    2.60269567637685
H         4.06916676209706    6.51591961611377    4.29442458282739
H         1.64014779011958    4.21738071895949   11.42762513580063
H         3.26325057532833    3.70882259664978   10.97436163686012
H         2.61471787845126    5.21886628677576   10.33584485050761

