40
CSD_code = QAYSIV | q = 0 | S = 0 | Stoichiometry = C14H18ClNO3PdS2 | MND = 4
Pd        3.15636996174521    1.14209463421863    3.58868531408719
Cl        2.54083996564161    3.28755423830671    4.00097617982652
S         2.96563141353921    0.63519096934651    5.80209149369592
S         3.59639283408025    1.46058387245786    1.31177750106340
O         5.18886382006921   -2.10168970726845    2.05139904423150
O         1.07333587081271   -0.22653440804034    2.64501247073503
O         1.43207297837004   -2.04412971703322    1.38383191457412
N         3.76766823339029   -0.76069839909166    3.22770619506689
C         5.76715348730821    0.19693574499521    2.41009616031776
C         5.28687720840957    1.42755131671118    1.93416665508048
C         6.13139492427296    2.52598378828369    1.87140633535539
H         5.77841972940943    3.47898414076870    1.51131519777601
C         7.44889443393685    2.40413218469754    2.28758792247288
H         8.09381889588978    3.26913456202661    2.24923126611451
C         7.93748492468294    1.18926798161041    2.73141305095212
H         8.96859233975967    1.09719857568920    3.03632579689855
C         7.09654110195061    0.08960158961591    2.78753089455065
H         7.45756039948498   -0.86934545872295    3.12754261053084
C         4.86887152906849   -1.01541940938782    2.51871784966775
C         2.75482794557463   -1.78487020285739    3.35175735818938
H         3.15780081709034   -2.73162869270656    2.97208869728300
C         2.21795440304162   -1.92461048048123    4.79893827091172
H         1.18879352032644   -1.55891443884944    4.83610752796105
H         2.20081703521894   -2.98276057157802    5.06665826968864
C         3.04854310384275   -1.19497612925157    5.84616752377567
H         4.10802295649353   -1.42719685198791    5.73160526037005
H         2.72377709210711   -1.48231436274326    6.84761293920482
C         1.64749097547941   -1.27997892120620    2.43595317589272
C         0.53025871373836   -1.54995775755287    0.39737491781134
H         0.25926409505235   -2.40075849884356   -0.22221896305570
H         1.02619487997346   -0.78459718154364   -0.20277657395333
H        -0.35066283682482   -1.11622563267519    0.87398585676721
C         1.17123372995370    0.92115544180657    5.93032809088110
H         0.78041686448225    0.35220057236390    6.77009424444120
H         0.67634643111510    0.66118538229313    4.99285841550729
H         1.05567321260015    1.98754180118612    6.11165509387088
C         3.33173726521128    3.19301975250239    0.83952588926547
H         4.00415986837436    3.44945232119306    0.02547794051035
H         3.45618495957503    3.83940283930886    1.70581679359691
H         2.30068091575473    3.24483511243981    0.50017541808151

