69
CSD_code = QAYXUJ | q = 0 | S = 0 | Stoichiometry = C21H41NO3Si2W | MND = 6
W       -10.01984059782465    2.58777807328341    4.39007444977562
Si      -11.15456538621492    1.99572203408807    1.86288285628738
Si      -11.34866972164919    1.30054630018461    6.81984150740935
O        -8.65842073361075    1.33901290203020    4.23539367932518
O       -10.86875641855604    4.19162884158770    4.73611673243562
O       -11.36557961414913    1.63433580896021    3.92518338957264
N        -8.12542883884517    4.15050111336118    4.46900542385690
C        -6.87109442484236    3.64337558120492    4.55234549125220
C        -5.75573037238578    4.33835169287242    4.10281470634724
C        -5.89368407358584    5.63273861340456    3.63443424832085
C        -7.16238505035480    6.18905134073123    3.64555655834941
C        -8.25226179629940    5.42894053749781    4.04694387330104
C        -9.61195016823177    6.06605254787847    3.93344230825925
C       -10.69097082363243    5.55890605433080    4.92330279085184
C       -10.25253147441694    5.87234944296139    6.36776518329400
C       -12.01534784397076    6.29114055887416    4.62756395705256
C        -6.67643560520374    2.30363643823683    5.19590651928773
C        -7.29895216558235    1.11555705097548    4.39352492990143
C        -6.60215372985570    1.00086566322463    3.02352094739519
C        -7.08204240978479   -0.18813546832296    5.18763792324185
C        -9.63210205717625    3.09636467654417    2.30266424955899
C       -12.77374556197411    3.01198670073234    2.22157315886664
C       -11.25798667565889    2.12261512566471   -0.08721757034052
C       -10.65462810249532    0.11886045199823    1.92290931320911
C        -9.80035648782009    2.37071885368147    6.61580765257293
C       -11.67644534804449    0.82195374538432    8.65615490334796
C       -12.93062031716020    2.27001595236460    6.31708350919639
C       -11.03352142930051   -0.38486834033396    5.94867419548959
H        -4.78374404112274    3.87227350568746    4.14614920931735
H        -5.04047277820782    6.19705805556886    3.29222747909532
H        -7.31346086380954    7.20889112462943    3.32805135761924
H        -9.99146652624990    5.86888987751219    2.92459524811646
H        -9.50094045981831    7.14738776426798    4.04098161992259
H       -10.18712943415290    6.94809259920619    6.51478881768207
H        -9.27994816198574    5.42734025678223    6.57112650738740
H       -10.98263346022475    5.46509681247892    7.06366884278659
H       -11.90389271537733    7.36667156778864    4.73933448516942
H       -12.77953994434371    5.93907326112084    5.31638224702895
H       -12.33977355336860    6.06700082717235    3.61376039188113
H        -7.15477894065330    2.31922235890882    6.17895577856873
H        -5.60887604946067    2.11943226678468    5.32647524342233
H        -5.56196680359560    0.70870792317149    3.14625262162167
H        -6.64459686366121    1.95157773946412    2.49605896237086
H        -7.11485456199116    0.25178753050949    2.42446908221274
H        -6.02757625919997   -0.35189441070348    5.39461887275744
H        -7.46456047217593   -1.02587100210623    4.60957241567798
H        -7.63261871295524   -0.14250013882265    6.12498865816051
H        -8.72244784912427    2.68001073275412    1.85594046801112
H        -9.75700533649930    4.09397227951703    1.87441454281973
H       -13.60981082715784    2.35078487086881    2.42166710177285
H       -13.05604029701163    3.65734307682197    1.39538254176956
H       -12.61840932015448    3.61948021547231    3.11681034170793
H       -12.09077267244417    1.54006604186447   -0.46611513112653
H       -10.36198424366655    1.74900366325391   -0.57195061272712
H       -11.40325714792280    3.14251862098245   -0.42826459959312
H       -11.50578835167620   -0.50379338729921    2.17599004170602
H        -9.90616537826806   -0.01864431510670    2.70703824077192
H       -10.25133468975286   -0.23756311439526    0.98029572799948
H        -9.88003061627584    3.26845311026792    7.23783726784175
H        -8.95327979186505    1.80488117684924    7.02308886111069
H       -12.55591707954910    0.19504594355629    8.74985200886361
H       -11.83593919640834    1.69846177319568    9.27451339554809
H       -10.84183682321414    0.27447312152096    9.08018422126120
H       -13.73871621444268    1.59526390831675    6.05228623177569
H       -12.71683541859939    2.88867219254656    5.44188889449140
H       -13.28878818657504    2.90690300289840    7.12223099871174
H       -11.95384041030180   -0.80658680170171    5.55779114832991
H       -10.59492947252435   -1.11999920676815    6.61903877236181
H       -10.36143284556985   -0.22968711823088    5.09961480841727

