42
CSD_code = QAYXOF | q = 1 | S = 0 | Stoichiometry = C16H21FeN2O2(1+) | MND = 8
C        13.06892723555176    1.82383888048819    9.35238342835143
C        12.89350206896883    2.98750919053899    8.52345253023844
C        14.18029419017254    3.39449235545314    8.06480800020184
C        15.13434711122628    2.42659755756385    8.51830928750820
C        14.43967451628160    1.46257980302185    9.32965092013651
C        12.01318876530446    1.19800193719580   10.19654692672438
H        12.02094176875535    1.66925095715264   11.18112177583979
H        12.18940438148082    0.13388291274489   10.33437350505926
H        11.02393157844657    1.33697622601879    9.76732697751295
C        11.64051929352545    3.79743650947220    8.43189589658698
H        10.75730078817715    3.16393901220030    8.45593785412248
H        11.62020137749274    4.38517478029806    7.51817014097889
H        11.58495817921125    4.48503360433075    9.27693288708091
C        14.50766811986034    4.67594399707984    7.37633887545408
H        14.74642297165842    5.43134118090511    8.12661094162489
H        13.67003302226449    5.03928539834900    6.78775192738199
H        15.37031936235335    4.56768196209972    6.72451751109656
C        16.61648341692850    2.55446990326635    8.40708212563954
H        16.90331170086538    3.03154139675311    7.47384584336242
H        17.10372429924061    1.58516021038970    8.46533548185920
H        16.98805658221056    3.16904023341950    9.22852441484372
C        15.08925600046461    0.42194049568992   10.18207090775220
H        15.40573673094985    0.87107361167068   11.12446352241241
H        15.96832933322270    0.00573415393247    9.69751142092798
H        14.40289748990074   -0.38888096635231   10.41064546325520
C        13.65576905079354    2.05899402187999    5.59843804070697
C        14.84578945306386    0.19889190845124    6.64102947274206
C        10.89530219571805    0.49039476234101    6.43475370540470
H        10.65843944558397    1.41245626948119    5.94219423926336
C        11.94283601573859   -1.04144590385402    7.50994295462817
H        12.75270563133505   -1.51312845458425    8.02791253449927
C        10.70377470058582   -1.52811997423172    7.21596078687518
H        10.25094701959067   -2.47311625070623    7.43268529098286
C         8.71829321824224   -0.63152008110525    6.00892820377245
H         8.43209198113580    0.32442790290155    5.57602595636899
H         8.01691557085631   -0.89020325204688    6.80289646336589
H         8.66658471686195   -1.40008058111282    5.23633115094198
N        12.05129674550017    0.22441425577420    7.01674317357151
N        10.05292494474977   -0.54518325881295    6.53481173435570
O        13.69037693069596    2.49298270713567    4.54615710388187
O        15.62863056216027   -0.52272783359556    6.23999910360772
Fe       13.70279153287221    1.40621845840540    7.23208151907934

