76
CSD_code = QAYYOG | q = 0 | S = 0 | Stoichiometry = C33H33N5O3PdS | MND = 4
Pd        1.61874136987753    2.88924100481706    1.52193199484779
C         0.66285186683490    4.50795845286617    0.51371042415789
H         1.08393299534052    5.10184936238346   -0.28653784543474
C        -0.10881153253012    3.32874958166126    0.39983718449098
H        -0.49259067362032    2.87200132044877   -0.50352566840570
C        -0.77663961885851    3.14456031439303    1.67494726483253
C         0.44958680670503    5.03627518506668    1.83699573323352
O        -1.53860819039543    2.27357200453857    2.04516687289800
O        -0.47002014401206    4.21422159126668    2.50125464791324
O         0.86228452278591    6.04862687049626    2.36856974700905
C         3.24751618160820    3.50880554530740    2.81437808413389
N         3.04396301272781    3.93990767795385    4.06939748201426
C         4.23231621555683    4.22575715114549    4.68226755597745
H         4.28559993436081    4.59160936497316    5.68689210619191
C         5.21511928835059    3.95967167807448    3.79056674620729
H         6.27928298970852    4.05497016800317    3.85492864307666
N         4.58979166973916    3.52289041293310    2.65064690165717
C         1.74709607458978    4.11912986488988    4.66556031127826
H         1.36849072572517    5.12231601945819    4.44990463510979
H         1.81162354832706    3.97253989911170    5.74194161827722
H         1.05621127340523    3.38286667688665    4.23720336867312
C         5.22458799353380    3.14674787708107    1.43334047654074
H         4.43659845868185    2.88602578722460    0.71931834227551
H         5.90361046755216    2.30269806368266    1.58263647290938
S         6.28453392969669    4.44975585917584    0.70680056564787
C         5.11668850885112    5.54587018089106   -0.07326945291219
C         3.95332413088144    5.96159169874064    0.55386273319041
H         3.68106728263474    5.61261984051864    1.53740092686632
C         3.11786855139633    6.86090556956454   -0.08723751494981
H         2.22356620089714    7.18538820909404    0.42333424569877
C         3.43824664766004    7.34229712273444   -1.34505569459781
H         2.78404088880960    8.04495908540212   -1.83963080168377
C         4.60711614934156    6.92845292077941   -1.96473397881890
H         4.86577926628246    7.30328387209504   -2.94433958330828
C         5.44915402848464    6.03348285588951   -1.33084081672372
H         6.36719337910075    5.71133014431862   -1.79898946034379
C         1.67697662481054    0.77128825730199    1.88628544388893
N         1.79026916123263    0.03951631647947    3.00985703218404
C         1.80520717914187   -1.30034640128002    2.71935833643832
H         1.88335932200941   -2.04668522303833    3.48299642576993
C         1.70094362102912   -1.40600276429412    1.37499281499434
H         1.67807688756040   -2.26852367399209    0.74174063989858
N         1.62249491237058   -0.13178687546914    0.88704164960639
C         1.94840314589561    0.55432779846266    4.32458411904500
C         3.23822524207633    0.76528388140472    4.80888653490457
C         3.38876567014110    1.24402003224918    6.10212245341978
H         4.38443568815860    1.41614335729980    6.48574539555664
C         2.28850814496173    1.49627162170534    6.90899010487771
C         1.01659138754510    1.25912751766535    6.40419660987790
H         0.15598866840940    1.44723107465936    7.02942071980010
C         0.82090707453605    0.78929977229837    5.11343995681273
C         4.43073981900024    0.44676811398054    3.95795278781781
H         5.31746728264633    0.94772463897694    4.33830008832237
H         4.26165518408053    0.75138097444572    2.92567542181102
H         4.61758710942609   -0.62784201809602    3.96237590270476
C         2.46263836761550    1.99604447744379    8.31122166392279
H         1.71890279329529    2.75461923646394    8.54695615149010
H         3.45550651659116    2.41471015055033    8.45708178098508
H         2.33361984887639    1.17556632619024    9.01715812625113
C        -0.54884333409568    0.53094936641398    4.57729815810514
H        -1.29983511795472    0.69752422157577    5.34406374589094
H        -0.63638309398662   -0.49380172583156    4.21712638769090
H        -0.77189962855499    1.18859175848308    3.73444048553621
C         1.53513119616502    0.22255390151598   -0.50791195219242
H         0.61970478186521    0.80091796480903   -0.67517120161313
H         1.49848251048277   -0.70010544418422   -1.09322433174723
C         2.74655145993799    1.02850643355211   -0.93013272157081
N         3.90999078775035    0.39262071052798   -0.86468317100411
C         4.99938845402790    1.01658177354785   -1.27742806679662
H         5.91600168540421    0.44621260297634   -1.20271364240347
C         4.99328059681823    2.30476623313762   -1.79155069823900
H         5.90629173653891    2.76572608260600   -2.13232267190142
C         3.78189654339554    2.97687164223409   -1.85381133989582
H         3.72793479313274    3.98054684957640   -2.24996804787776
C         2.63407029880896    2.33672995199644   -1.40399602045423
H         1.66905247882715    2.81454185180645   -1.50412933983170

