68
CSD_code = QAZCID | q = 0 | S = 0 | Stoichiometry = C31H25BCoN9S | MND = 5
Co        7.79793037968596   11.94040146876343   12.05063944792681
S         7.38239936042539   12.70148934103001    7.58891757180965
N         7.65296343409401   12.28477171330979   10.29505409902240
N         6.58131651533269   10.56717799218018   11.92215784276669
N         6.59037103224282    9.69494223481778   12.92177838187455
N         9.06491200412242   13.46299555208957   12.28017583756502
N        10.08338432028928   13.28267199780527   13.13434527258426
N         9.21990945967705   10.70434925119327   12.13302037849500
N        10.15388881852147   10.84111524037790   13.08145112031285
N         7.66527692937958   11.97360117142949   13.94294077881652
N         8.75186578723231   11.97804644082060   14.71325205704918
C         7.55241663236225   12.42779126642863    9.12942955853820
C         5.57306563423018   10.29585145005310   11.07350730752061
H         5.39607804071097   10.87325850262595   10.18738946092263
C         4.88844008506912    9.20374467008435   11.56593633498768
H         4.02766702016114    8.72692599060361   11.14227994607939
C         5.57714669266965    8.86617324265975   12.73307298216609
H         5.38383328972779    8.07149073024018   13.42812526878477
C        10.95312072654433   14.29280924522589   13.02634322270372
H        11.83595254054943   14.33130101562951   13.63183730563119
C        10.48943392221293   15.16373875956834   12.06572271496993
H        10.93170541541857   16.08104998550984   11.73653526375202
C         9.28413479562328   14.60475034401022   11.62120134533690
C         8.36627164396926   15.17361604324758   10.63618243856403
C         7.02219872974112   15.35638178113984   10.94599920410503
H         6.66425745095528   15.09870106979531   11.93320279547188
C         6.15867043858815   15.89657534260301   10.01200992152623
H         5.11493773440948   16.02876428822966   10.25816802065172
C         6.63063093632541   16.27093730653911    8.76520449927340
H         5.95403369578063   16.68432122630278    8.03242486272960
C         7.97185745254103   16.11367536189016    8.45903145912223
H         8.34183137347442   16.40432074672455    7.48728876285233
C         8.83828191119562   15.57091980679851    9.38916148126897
H         9.88120888166794   15.42985080252431    9.14587724275773
C        10.98286352114499    9.79423368065776   13.04899288997141
H        11.80781805236158    9.71877589783084   13.72827403663692
C        10.56816096707944    8.94437880435584   12.04794864983069
H        11.00461670706196    8.01550784092368   11.74450099981723
C         9.44232785544128    9.55715904222242   11.48666971241520
C         8.63523256154918    9.02660452115872   10.38243484824900
C         7.86996169889544    7.88316149180171   10.58692292860717
H         7.86133992601692    7.41865365132113   11.56124154594120
C         7.10199213016144    7.37117814562807    9.55812430962034
H         6.49430926513930    6.49484606825509    9.72812296936313
C         7.10769931936503    7.98223223989392    8.31550652527802
H         6.50003586448466    7.58613647576312    7.51532547315678
C         7.90096084375564    9.09513542913192    8.09661456170880
H         7.91902533316008    9.56762685623096    7.12619838469293
C         8.66859750351692    9.61378409474148    9.12356912460269
H         9.30078694372960   10.47101990696043    8.95109791875753
C         8.39553710750584   11.98782491274462   16.00250368862624
H         9.12955314442033   11.99770718196326   16.78273168015361
C         7.01984916810301   11.99023830538134   16.07001963925989
H         6.40833800183403   12.01239805933112   16.94810070517789
C         6.58824560484387   11.98763046754053   14.73605141393573
C         5.22713130687695   12.04345602100045   14.22360681890485
C         4.17678625617338   11.44915162488866   14.91904446872534
H         4.37902108234589   10.92670105514233   15.84144992828434
C         2.89179299584399   11.49677987384469   14.41296355849624
H         2.08551719405010   11.02185775057847   14.95220469109740
C         2.63522344902886   12.14104860124452   13.21376422002902
H         1.63080748921285   12.17163026085080   12.81904799518545
C         3.67142263285610   12.74215031324642   12.51828766792309
H         3.47908039086527   13.24290788013021   11.58105810350671
C         4.95621095728083   12.69655047959406   13.02253864341818
H         5.77020149543970   13.17717392794014   12.47708126567578
B        10.11864320052695   12.04035070753901   14.03109497644753
H        11.01921694497722   12.05269704786890   14.79114146855334

