73
CSD_code = QAZFUU | q = 0 | S = 0 | Stoichiometry = C26H35MoN4O6P | MND = 6
Mo        3.59103046304527    5.46404137802939    4.63732951404406
P         1.42131537766501    5.78344137074897    3.73302943948159
O         4.38773062965507    2.96843807544564    3.02856532636731
O         2.31727231410181    3.23238865660501    6.33532561085773
O         6.34994406443417    5.02709381385573    5.92264200098808
O         1.25839209177896    6.73576396486779    2.43356047164516
O         0.50580792478054    4.49340382638804    3.34355950158729
O         0.28191211243151    6.50013308007855    4.63413119276980
N         2.99142652523908    6.90863672042810    7.40104149076301
N         2.47115107332786    8.22008556978265    5.79474042071093
N         5.30069015378073    7.93623118902041    3.56535887217937
N         4.69173320825548    6.73151300325247    1.91298350330867
C         4.07107369898604    3.95673974727702    3.52449976341021
C         2.78444180717532    4.11519973692603    5.76104662245115
C         5.32161202058804    5.21716783251628    5.44715575153503
C         3.03021570645036    7.01717037770134    6.05103464644411
C         2.40733700008271    8.01592668233473    7.96391409376286
C         2.08017297168796    8.84416833179722    6.95133458587841
C         3.59091147414205    5.85858112456920    8.19887862531485
C         2.56874480533072    5.23141987422312    9.14388772651668
C         4.79319297958480    6.41569796074515    8.96160960942525
C         2.46449552230129    8.90093506556786    4.52716463822604
C         3.39614835957548   10.08755415143057    4.59189197007760
C         2.87012987140554   11.36901723602271    4.49098463803445
C         3.67279007523001   12.48904635095151    4.61121760540671
C         5.02593422408604   12.33594203655174    4.85141279314293
C         5.56290126217677   11.06470378442711    4.94542821995040
C         4.76868439761021    9.93234191194544    4.81673237608407
C         5.42069865844127    8.57009171505723    4.85261260744814
C         4.54899509275514    6.85597822621462    3.25174238735222
C         5.90197224697251    8.46791961343989    2.45375056182801
C         5.52097723726297    7.70224666948069    1.41214460635201
C         4.07842926658778    5.73863358200020    1.05914385914502
C         5.14228297745673    4.79815877784028    0.49561673632489
C         3.28535372975901    6.41259984893237   -0.05991065992756
C        -0.02045616697604    6.99118668155352    1.87057047325136
C         1.04270386950466    3.28525759880793    2.85389041571446
C        -0.09335509034506    5.92183991783013    5.86457639201879
H         2.26854610647288    8.12943850203949    9.01872571591461
H         1.61498955431306    9.80864182346438    6.95554872082588
H         3.94324203551310    5.09911041973586    7.49536089757016
H         1.71719296920507    4.85064141362665    8.58471741236358
H         3.02749136817104    4.39909714763891    9.66996382817780
H         2.21243448845225    5.94903537661752    9.87992920750133
H         4.49022181011638    7.19067346286875    9.66308530863308
H         5.27728719210977    5.61626193423459    9.51486284379076
H         5.51580564798165    6.83538242239885    8.26514364929055
H         2.76757883156029    8.18459521154075    3.75936769763571
H         1.44778351828066    9.23895260786637    4.30256494859535
H         1.81070001408249   11.49016202927129    4.31247284038702
H         3.24163288363446   13.47510143440584    4.52497527726324
H         5.66292402965159   13.20101401917198    4.95829165259479
H         6.62249505414334   10.94699813917345    5.12492219056183
H         4.95971906168616    7.90914128809988    5.59122858690359
H         6.48263797303698    8.67931205423469    5.09856662678494
H         6.53651345089618    9.32920600709239    2.49944505191590
H         5.77781487423892    7.77352032752066    0.37610683610781
H         3.38741544920422    5.17819699289645    1.69665079971943
H         4.66933749826617    3.99666217788512   -0.06516519032370
H         5.82026317358458    5.33250669778614   -0.16731876229048
H         5.72149464690476    4.35754626282435    1.30300996225826
H         3.94337865008293    6.90187992444389   -0.77492670514088
H         2.70055581025738    5.66676360552528   -0.59177185359170
H         2.60934841368829    7.15182583280373    0.36090041133275
H        -0.46246664804838    7.87875120152153    2.32743074719394
H         0.12093982887564    7.16058299480808    0.80161370216991
H        -0.68935551922528    6.14236087295672    2.02230175165947
H         1.77664480111012    2.87433017415776    3.54943615647031
H         0.20690791214261    2.59055586866950    2.75813459809940
H         1.51132846176534    3.42316762699197    1.87623908033956
H         0.78749799669002    5.65833648113856    6.45544879471659
H        -0.68685534729207    6.66451512429631    6.40027075544002
H        -0.69023992784890    5.02173705562343    5.70286806927648

