54
CSD_code = QAZGAB | q = 0 | S = 0 | Stoichiometry = C17H25MoN4O6P | MND = 6
Mo        3.44829371572963    3.58252795745762    1.89752568420393
P         3.34428629775081    3.97028924492248    4.22969902198502
O         0.99202736491941    5.30987205679086    1.24505283727057
O         1.12854476603937    1.59045261801374    2.24488149403553
O         3.44886463821648    3.18166058974744   -1.15077941213379
O         4.51084715230439    4.89847208686520    4.85409703456778
O         2.09337160103475    4.79134574506657    4.83667429511888
O         3.27033526266360    2.74782748555620    5.31796649006261
N         4.91307870530577    0.78669985655426    1.87308265880878
N         6.19624913463945    2.18356600790591    2.85350513180982
N         6.02934774850570    5.27939622189818    1.03161759830220
N         4.54502888557356    6.54963870320931    1.88510271919320
C         1.95374326703529    4.75593031016441    1.54466674898103
C         2.06188563237340    2.25427668710021    2.11731486022751
C         3.48718964915673    3.31742711062888   -0.01040253055639
C         5.01123148782464    2.09634263979698    2.20342077043421
C         5.99536839552950    0.07722666941331    2.32689289500030
C         6.81286768979745    0.96043539003674    2.93644140454777
C         3.87237358934867    0.15985721862454    1.10755721148938
C         6.88327124052319    3.40598700849906    3.15504120858781
C         7.73607613535812    3.81883180208202    1.94879335648723
C         6.84624155790911    4.13797152419526    0.74085300935768
C         4.82139835424041    5.25063628863299    1.64075512427213
C         6.49398754095932    6.56255838764195    0.89986632317162
C         5.54893479861086    7.36478516218979    1.43182321852239
C         3.38455207482132    7.09017058717983    2.53322646873925
C         4.49558014023941    5.28669222864485    6.22131544573158
C         0.78393234132107    4.29323823424178    4.64927960727889
C         3.63957404122348    1.42104862934442    5.03962430982862
H         6.09449951645292   -0.97876471202928    2.17866780287547
H         7.76001401747944    0.82382500729987    3.41765338942688
H         3.41829419563175    0.89206033315284    0.44198585623430
H         4.30100608644740   -0.65133349514188    0.51806732598835
H         3.09596056098481   -0.25343421885917    1.75573802074999
H         6.14293460128625    4.17726167059258    3.37997203367863
H         7.52039169473488    3.25405152521152    4.03107792677231
H         8.32595172405202    4.69931013358377    2.21120647586358
H         8.42105280903186    3.00932534181065    1.68725439069609
H         6.19031417292264    3.29271418208101    0.51437397720158
H         7.46547781033999    4.35359500213166   -0.13431388631472
H         7.43288101011628    6.79217066966738    0.43855371516324
H         5.50916238049656    8.43138710098926    1.52131030524728
H         3.66373750151681    8.00408923743178    3.05943133988321
H         2.60673511054662    7.32994370013639    1.80463988228442
H         2.99118077129500    6.37228497725116    3.24899043299292
H         4.11615662275171    4.47975357505779    6.84909243690403
H         5.52515929590409    5.51822511349568    6.49695888543815
H         3.87004613179768    6.16962895792863    6.35762464686067
H         0.10240132484489    5.03783945609190    5.06072519852788
H         0.56995235711128    4.14565733558661    3.58846925672257
H         0.65229904157019    3.34449669039489    5.17382563293728
H         3.34487620577619    1.14327455976741    4.02521347184743
H         4.71800355801595    1.27896655431981    5.15658928394208
H         3.11502828983354    0.78590684970124    5.75609721274767

