39
CSD_code = QAZHIL | q = 0 | S = 0 | Stoichiometry = C19H16ClNPdS | MND = 4
Pd        8.85380261247962    0.07640654284922    5.64641819483087
S        10.58919641415986   -1.43645398071950    6.72643962815813
Cl        7.19711445481198   -1.01400155472541    6.67482254649329
C         6.71047248117275    2.61351704431596    2.91305961683003
N        10.33596906990243    0.71775988001563    4.48815186515035
C         8.91685744298829    1.57915544866364    2.71329755567040
C         7.61365506835096    1.42266811412258    4.85361328212211
C        11.01021815693778   -0.13533516570353    7.88782455473816
C        10.13997304307007    1.06748996599162    3.26783249577456
H        10.99246016756345    1.06588788782958    2.57957973377477
C         5.61921641807643    3.02822929002622    3.70241167482015
H         4.83553439253858    3.61002421422169    3.23873705513647
C         7.75382961268909    1.84218606793764    3.50809972359604
C         6.55085102874657    1.88824737621028    5.59775475418535
H         6.44003505390673    1.59958981292640    6.63644846759045
C        11.67584569664544    0.38990263242015    4.91317633987629
H        12.39683552061554    0.54467482315651    4.09401341495475
H        11.94599755172815    1.06083771459338    5.74002262025853
C        11.78607016366818   -1.05732638103130    5.38946360373328
H        12.79605051510721   -1.26722213728160    5.74131339961101
H        11.53139393378160   -1.75185288391402    4.58589435760928
C         7.86390470742449    2.60515749720693    0.78395022460468
H         7.90523389612136    2.86425480621169   -0.26355245660851
C        10.01318783404617    0.72871948618929    8.33229918853713
H         8.97405923144003    0.58987266612273    8.00963489505445
C         5.56331771860817    2.70537646029623    5.02825983992213
H         4.74095053362828    3.04450872172077    5.64154819244965
C         6.78261006244000    2.95676332328814    1.54822368392491
H         5.96387816740765    3.51328238859521    1.11461168065374
C         8.93968744853376    1.94840154096680    1.37460636742290
H         9.81885900631606    1.73723449704347    0.78156280824257
C        11.64754015227500    1.89011494926212    9.65991279226801
H        11.89970374305295    2.68507356906597   10.34521317128658
C        12.62831808037497    1.00985390769924    9.23220563768924
H        13.64246275754647    1.11119341795096    9.58863285006842
C        12.31195145784525   -0.01034071562678    8.35208827242412
H        13.07304373791530   -0.70639563454152    8.03184992009737
C        10.34242161716207    1.74086464036272    9.21959767151084
H         9.57389104893449    2.41547976628415    9.56468037553544

