78
CSD_code = QAZLOV | q = 0 | S = 0 | Stoichiometry = C26H48NiOP2 | MND = 4
Ni        4.64033994689570    5.88740769945947    4.13377372272474
P         2.51854499113594    5.23853325266696    4.21723763705245
P         5.16984789899421    4.97936670589016    6.05532994411061
O         4.95041400953254    6.68719247376969    2.52243007668718
C         6.05562144851843    6.72994400245690    3.13632904506283
H         6.86797379688178    6.03939047847457    2.82619234835711
C         6.59998041762508    8.07586018071863    3.63644796614901
H         5.76396745227375    8.70096956802506    3.96160607808967
H         7.29658367191222    7.93406736456421    4.46298908749887
C         7.30094486156498    8.72289027886728    2.47669767274037
C         8.68580987342495    8.69943791696618    2.37305670727240
H         9.27354099724401    8.23945700366149    3.15593557777969
C         9.31946432438355    9.26553882533507    1.28075599728849
H        10.39812558272020    9.24557850414128    1.21530547431814
C         8.57483461769141    9.85522720228878    0.27417526741337
H         9.06969009872595   10.29785942815422   -0.57822701698565
C         7.19263597524662    9.87200594349166    0.36355858993946
H         6.60629539077472   10.32577048498695   -0.42269306039176
C         6.56081241721408    9.30873506903429    1.45609318380355
H         5.48240283314245    9.30924342479834    1.52046781885241
C         2.08708114554258    4.10982040641138    2.75476634669471
C         3.38948930093583    3.34474821120993    2.48398549800277
H         4.24728334576316    4.02411372719042    2.58221751640922
H         3.39379810605343    2.94315444810575    1.47182890890049
H         3.50962196637506    2.51038744766172    3.17158590108934
C         0.95291297117377    3.10618357579537    2.94868794754495
H         1.07084549861887    2.53480201058045    3.86645272142414
H         0.95992075296947    2.40311523455574    2.11564200116408
H        -0.01930861315929    3.58658536965627    2.96567117561780
C         1.81948543115711    5.00294756816673    1.54366888902049
H         0.85002954438864    5.48979606100861    1.60975382037369
H         1.82994213899008    4.40981205671450    0.62965052208887
H         2.60001162478541    5.75985296758146    1.47120623760491
C         1.06602984514475    6.40675638538937    4.57643916385014
C         1.24978158069657    7.61165449957736    3.64947663627944
H         2.29473284766926    7.92508951259067    3.65900987543931
H         0.63336100952390    8.44645291178679    3.98104665802122
H         0.97978765047490    7.37898185395474    2.62455181205050
C         1.24539846705438    6.90230484065657    6.01248146159412
H         1.04658860636500    6.11760004990117    6.73889489158753
H         0.55618677812158    7.72253945111398    6.21261238107580
H         2.25902050644671    7.27260239003308    6.14513463060460
C        -0.33028239470372    5.81439294437413    4.42894495784958
H        -0.57418885561201    5.62197892367355    3.38838455567132
H        -1.06458684094241    6.52262738111410    4.81351788849926
H        -0.43004731746049    4.88918357076072    4.99298990660147
C         2.50684997314208    4.03731494984631    5.64599549027815
H         1.50620810806168    3.95029229484670    6.07729340498389
H         2.77986436667245    3.06637203736758    5.23341934247000
C         3.51525355809557    4.42998173547731    6.73265932849637
H         3.64381550341150    3.61022105085889    7.44455428761587
H         3.12197494832009    5.28821212315850    7.27728924706292
C         5.69547002136547    6.22974839973070    7.38971476039468
C         4.91185280450610    7.49880141148656    7.02203397196328
H         4.81555890424769    7.58092723045929    5.93039000009741
H         5.41923624643530    8.39014605232170    7.38693664150966
H         3.91603478123564    7.48306156412272    7.45905357644328
C         7.18711534067902    6.51887221219232    7.21852335508699
H         7.79688595795418    5.71276782864796    7.61794535013688
H         7.45819350694861    7.43159316341334    7.74880950780333
H         7.42329506558440    6.65071284144396    6.16429712246529
C         5.41040378725994    5.87676246101662    8.84818384858903
H         4.36535657980467    5.62741216417687    9.01275408635781
H         5.64565391702453    6.74210614078534    9.46821321318274
H         6.01864185838142    5.04775546487732    9.19347737558716
C         6.23678707003470    3.41356731017985    6.20425701315121
C         5.47096565429941    2.30412649217891    5.48156652630008
H         4.59627213453950    1.98641881296934    6.04390152950632
H         6.11293781660173    1.43415411496891    5.34484892943684
H         5.16403831013005    2.65674004348381    4.49955420444074
C         7.52191022807185    3.66629737883080    5.41223643358990
H         7.27323456161816    4.06743863753432    4.42956443112393
H         8.06903415027713    2.73439707462371    5.27394390237323
H         8.17893253405669    4.36940018722042    5.91385794466127
C         6.56288015489945    2.94946963317304    7.61935281767326
H         7.26392817086967    3.61849814565110    8.10986219608253
H         7.02591905946235    1.96347038544836    7.57532877895279
H         5.66546922385848    2.86880105024006    8.22901695943717

