81
CSD_code = QAZMIQ | q = 0 | S = 0 | Stoichiometry = C27H50NiOP2 | MND = 4
Ni        6.67377164910003    9.71452414592643   11.36132824588810
P         8.12931366531561   10.94973007397644   12.51069441041041
P         7.34051903658047    7.79151763457166   12.18374069056734
O         5.38548599170618   10.78102438496508   10.60104774787537
C         4.18868905163313    9.51520916156841    7.97334258238693
C         8.39555883134872    8.33777473913229   13.62877516855496
H         7.70313751707502    8.45317985054354   14.46268066727893
H         9.11063501654784    7.55446017287183   13.89479355644197
C         5.06890654122434    9.60195281434175   10.28311852912173
H         4.18476306045650    9.13590136756530   10.76477447773061
C         3.46043192047666    8.59549080569444    7.23018716754454
H         3.70179336037616    7.54305605699239    7.29590719523798
C         5.31584963349349    9.06545774967269    8.86708900666564
H         5.32081482010886    7.96986647467096    8.90343224560587
C         3.85789821118915   10.86255377285823    7.88289441076096
H         4.40101153331858   11.58166145482617    8.47858963203778
C         9.13750300781272    9.66357248137971   13.41576538432713
H        10.01800337398498    9.48469011749675   12.79858996666658
H         9.47971627324616   10.05255216353080   14.37852171191455
C         5.98925482493884    6.80983353293924   13.10105385212717
C         9.49602980685900   11.94809361706458   11.64560404204372
C         8.48187290880796    6.56541865049252   11.27835256666563
C         2.43258700683317    9.01309306147658    6.40285534797658
H         1.87681783142518    8.28618308868764    5.82754737214470
C         2.83064166126255   11.28055697297713    7.05817475744381
H         2.58326481477511   12.33080783768257    6.99771421610340
C         9.90891250797369   11.09918938188482   10.43904620615264
H        10.50003033541146   10.23757352154468   10.74027537750678
H        10.51078468823516   11.68769516292519    9.74757462475485
H         9.01924883004356   10.75737819593751    9.90901783719710
C         7.38881314615600   12.01311471842395   13.90117829070630
C         5.07314578584672    7.88177584792767   13.70647455520687
H         5.47834445448941    8.26674353506357   14.63940225281178
H         4.08955394354358    7.46631037310716   13.92126778389801
H         4.94347754992791    8.71317370491624   13.00623532876813
C         6.33041546656889   12.91852653744921   13.26475933664870
H         6.77196336848480   13.76011868052610   12.74139641941553
H         5.66530408993877   13.31439362475843   14.03167543099583
H         5.73504887885735   12.34587972035311   12.55347558940806
C         5.17993420923253    6.02874787653490   12.06487963652130
H         4.93994879853639    6.66766317607001   11.21594983360026
H         4.24568154827851    5.67874941122629   12.50337058457055
H         5.72377724749659    5.15631616859563   11.71224478361690
C         2.11671843294752   10.35727013277122    6.31220903856206
H         1.31465413260326   10.68395562131749    5.66616367517422
C         6.67036730427893    9.56755070506688    8.36118268594752
H         6.98477039405957    9.03100932612960    7.46813996950280
H         7.41885311223517    9.41661516636213    9.15600909925332
H         6.61942550579514   10.62986641515598    8.13465718576172
C         9.76025213391707    7.34821000899823   10.97141590220819
H         9.50156281938447    8.32215295710953   10.56017642755075
H        10.36162755850665    6.81577942588441   10.23518631893790
H        10.36831303025384    7.48375961099163   11.86249891792034
C         8.86349867888931   13.23128659434452   11.10630147406035
H         7.90174304726462   13.00400683333397   10.64717407556151
H         9.50754285688155   13.68115341833330   10.35099497683281
H         8.71723486495161   13.96495001277749   11.89403362348717
C         7.83496261941259    6.20762359913817    9.93849873731540
H         6.94875065073635    5.59405727126734   10.06426621602389
H         8.54116880639056    5.65311926864281    9.32079176784336
H         7.55424430516267    7.11327845741960    9.40702541373920
C        10.74522289499872   12.27150407485750   12.46194155539247
H        10.54120008240728   12.97099551091386   13.26445013436892
H        11.48467209966647   12.72868385010717   11.80397628940268
H        11.19147016925939   11.37704101175040   12.88921092836010
C         8.36004969043274   12.83082753106853   14.74503171812471
H         9.18640911068176   12.22338467200537   15.10911224389909
H         7.83108337272850   13.22809821330644   15.61172888485246
H         8.75871794969400   13.67596432863940   14.19093687765478
C         6.64853555534696   11.02621269503317   14.80503974207272
H         6.02452180269944   10.38305166422675   14.18661982720685
H         6.00272763530347   11.56117979749155   15.50079377741922
H         7.33693411748291   10.41953618755833   15.38929328242383
C         6.43353972866490    5.87051097915580   14.22160902360658
H         6.92967991479287    4.98462371134955   13.84142529631307
H         5.55063554658684    5.54323118030272   14.77108361215100
H         7.09782558153561    6.36273651622354   14.92702216457507
C         8.84718765449648    5.29005590134491   12.03030004580302
H         9.17456644043205    5.49813043016559   13.04621712257726
H         9.66668783989787    4.79239393189509   11.51129857133654
H         8.01218636029944    4.59598116640973   12.06318457347626

