50
CSD_code = QAZMUZ | q = 0 | S = 0 | Stoichiometry = C25H17N4ReS3 | MND = 6
Re        5.45584460123921    4.00858672568514   15.03679145289640
S         3.56703259418735    3.15689402957568   16.22033292652580
S         4.42478922758352    5.20604800351930   10.70466303542506
S         6.18433512541503    1.86737278950563   13.33307550747407
N         6.17511528137185    5.78056874424261   14.21253613475257
N         5.50301711246583    5.29073563209883   16.57015578458292
N         4.47981816967383    4.24900736811952   13.12309570751327
N         6.74643680578930    3.01979652978547   15.84250161832108
C         6.70641790160816    6.67863255694068   15.05189916150027
C         7.17835129423419    7.88919430871668   14.58529214309257
C         7.04896638923242    8.19170824163625   13.22615314852562
C         6.34656008177341    7.33653504670091   12.40300681703190
C         5.88313580591362    6.13412329817577   12.93961600284067
C         6.55734762919027    6.28687322601920   16.49537253974171
C         4.84484716173770    5.04754299389722   17.73310622818153
C         5.04059647485703    5.73333968344306   18.94265809822501
C         4.29022903579318    5.42563325173544   20.05723411502744
C         3.32045478406428    4.43185805261362   20.01398928060967
C         3.11256353569485    3.73213435890444   18.84184126189060
C         3.86277534339395    4.02481330226344   17.71396206854838
C         4.98110417879314    5.20005226684429   12.35033117320694
C         3.61625434541677    3.44484039268846   12.42884274027456
C         2.92838355284762    2.33698857508668   12.92423074873296
C         2.09898486355116    1.63777928667324   12.07597201873319
C         1.93789657841175    2.01708523828423   10.74445928156743
C         2.61106404848266    3.10808987057147   10.23132145984135
C         3.44930285393715    3.81080605276854   11.07883302974242
C         7.51371252686342    1.97012678420650   15.65719030873321
C         8.45488633655610    1.48752470705465   16.59290689622402
C         9.23482861364505    0.40190008165372   16.29455649052236
C         9.10664962254238   -0.24679224209296   15.06016654220027
C         8.19450069792630    0.18543948594050   14.12757372320816
C         7.37489801754977    1.28265852730394   14.39818600744219
H         7.61926711582304    8.59847638184099   15.26723248499951
H         7.43678950007494    9.12216347541295   12.84232823757674
H         6.12797964123399    7.58098619090018   11.37574154658594
H         7.49443412860326    5.84742601687613   16.87602096655056
H         6.32879483940356    7.18197385053229   17.08478016348291
H         5.79691159646873    6.50026266936805   19.01431151641565
H         4.46602423924697    5.96499996695696   20.97660933017427
H         2.73730624877616    4.20311065058294   20.89261344623931
H         2.37260626670479    2.94879596487826   18.78335171535572
H         3.06504204193105    2.04340924036057   13.95297282918837
H         1.56625368870245    0.77742197143812   12.44965784369601
H         1.28183088171364    1.44993820073937   10.10205062197676
H         2.49932938832324    3.40682827117717    9.20097777365558
H         8.53817598278681    2.00094379061056   17.53872188972117
H         9.95574997722570    0.04057800799468   17.01276619478710
H         9.73088859000232   -1.10070353800714   14.84183159322829
H         8.08861528122803   -0.31650828222760   13.17787839322370

