95
CSD_code = QAZMOW | q = 0 | S = 0 | Stoichiometry = C34H56NiO2P2 | MND = 4
Ni        2.68053535152977   13.61825497234167    4.97137697472291
P         2.61648815645277   12.44121280716453    6.89249967939881
P         1.45465175798355   15.85535228675248    7.15748378401041
O         2.09221668771062   15.34984841226635    5.92475607187544
O         3.31544545647542   12.30198159537458    3.83426769742144
C         3.46790663331704   13.05979321409333    2.67873343104381
C         4.96685734055891   13.24966925403128    2.37220867661710
H         5.48323137295048   13.65628069777397    3.23866558478854
H         5.11819060211469   13.91192611071259    1.52404979447179
H         5.39419147903253   12.27482783741598    2.14733700693975
C         2.83142824492645   12.43099773507597    1.42781077319224
H         3.27518742983001   11.45127795575510    1.26454740482200
H         3.03179862297952   13.06065481345655    0.56426839736160
H         1.75831889982240   12.31001509955249    1.52725171244664
C         2.78729840592372   14.36285140642818    3.18425227276836
C         3.62251581137729   15.58247095063695    3.00166676309451
C         3.61812664843592   16.26411621969093    1.78462964208937
H         2.98210829081456   15.91496544519038    0.98347070592559
C         4.42472299527565   17.37048580494397    1.59305305574263
H         4.40636574839035   17.88898105391896    0.64451582610417
C         5.26258046689377   17.81148368536448    2.60448308176697
H         5.89146909771981   18.67667105010488    2.45080962650051
C         5.29555594300061   17.12945796192044    3.80823231219494
H         5.95644828074898   17.45901620356505    4.59842434140560
C         4.48393576181497   16.02613600868807    4.00071363674759
H         4.51052485497245   15.48488191348097    4.94195554906147
C         1.33281739657252   14.49952118796133    3.02648187002611
C         0.46516190161366   13.40041299871261    3.21223791060560
H         0.87553286721095   12.44080063908012    3.50865529758500
C        -0.89753419806589   13.51883240060360    3.03031906686106
H        -1.52994381616876   12.65189130567513    3.16707091570202
C        -1.46150860426136   14.73698916392126    2.68259672464538
H        -2.52752848041347   14.82550677962806    2.53056401551459
C        -0.63656133843356   15.84278459750777    2.55565497695727
H        -1.06330772168059   16.80662681571985    2.31196697341449
C         0.72812123663926   15.73350949642537    2.73157607031294
H         1.34157763738630   16.61672631418487    2.63134049783384
C         1.28455107525327   14.53530219827676    8.45743345039349
H         1.26687367882286   15.01310319984441    9.44133440070207
H         0.29977991581519   14.09809791517323    8.29456649859155
C         2.34578059787296   13.43304217435427    8.45910543599580
H         2.11475797446490   12.73991298314884    9.27407474200455
H         3.31330924741473   13.88289133480551    8.67843999603942
C         4.38856947731064   11.84644680132449    7.24207756069756
C         4.69590964999536   10.66753623969717    6.31931753374475
H         4.23515197353727    9.75145487892242    6.67722018801547
H         5.77211790755756   10.50180170954097    6.27651556511061
H         4.34117923298949   10.88901306352789    5.31377579871085
C         4.73314032774554   11.48094927944359    8.68638445215586
H         4.68621765749862   12.33928642835851    9.35230083680795
H         5.75474124960031   11.10200298078890    8.71439615067990
H         4.08172130856132   10.70660595327413    9.07821305123099
C         5.26479161023610   13.01969035852220    6.78759427705514
H         4.96416054188714   13.31036306841094    5.77190868248586
H         6.31428609496239   12.72950154962296    6.76483878998426
H         5.17038532414286   13.87921873140212    7.44992004051176
C         1.41146539859746   10.97968071514311    7.05320556899509
C         1.53277611749935   10.14827816355661    5.77046264045865
H         1.79451354565065   10.78849734523343    4.92829120464638
H         0.58967319996074    9.64975864306770    5.55074673174806
H         2.29746808126263    9.38352228820316    5.85765422390972
C         0.01720030430760   11.61453392243027    7.06825381591873
H        -0.18927081234149   12.09384465592419    8.02355108277083
H        -0.74700150482593   10.85342363006723    6.91232126183877
H        -0.06481571134754   12.34721634515853    6.26524489984757
C         1.56710383568574   10.08339939159968    8.27747098553556
H         2.49525820091892    9.52010543229871    8.24222882488284
H         0.74659703714291    9.36591801682875    8.29933163151064
H         1.53439196477498   10.65017006082771    9.20653134577739
C         2.53438174402010   17.24239521615263    7.84764101570040
C         2.93475869374413   18.14794300169680    6.68535641217388
H         3.24056628822266   17.54949066743970    5.82947487067502
H         3.77156198682872   18.78093200216558    6.97816287341851
H         2.11955935837809   18.79556826531713    6.37724238925109
C         1.88544870052230   18.04525031065395    8.96684234019585
H         1.10116635474869   18.69320385145613    8.58452517800733
H         2.63606909356222   18.67884283529030    9.43877284997395
H         1.46310558752696   17.39633817928015    9.73168606307585
C         3.79151969587497   16.55088592608805    8.37403536627600
H         3.58515398655438   15.99000949438732    9.28380767362795
H         4.55734318165147   17.29068626648897    8.60566994908262
H         4.18811493718079   15.88233318908365    7.61255065760666
C        -0.32438202226555   16.37474339950154    6.80430992831420
C        -0.97018237631922   15.16467242037633    6.13046206345614
H        -0.29058386933199   14.73016166257738    5.40009489223863
H        -1.87220963685552   15.46663358613109    5.60120164689148
H        -1.25296145909878   14.40264015239807    6.85364525224074
C        -1.13270780370548   16.75988444401165    8.03841732502976
H        -1.08863000666047   15.98774636687353    8.80330594935834
H        -2.17593257051432   16.88673059187688    7.75064612885990
H        -0.79285603923669   17.69483213322043    8.47279912750007
C        -0.27417819291159   17.52537118674038    5.80485631664864
H         0.02367260470773   18.45530971545818    6.28396822365556
H        -1.25604748664694   17.67945078422679    5.35951584256013
H         0.42643752574610   17.28846269731953    5.00596987352679

