42
CSD_code = QAZNOU | q = 1 | S = 0 | Stoichiometry = C16H20N3NiS2(1+) | MND = 4
Ni        5.07146650416454    2.43269033597779   11.80119685651839
N         7.77820815945485    3.05322562617714   12.32342646900883
N         6.69938156880173    2.40027761443950   12.79535124896321
C         7.03932468376296    1.82709286127157   13.94617107002302
C         8.38185647907000    2.11892019658998   14.20951312291558
C         8.82808259735069    2.89506687926731   13.15696705524203
C         6.06474595348643    1.01587490605481   14.71388656371668
C        10.16032922723634    3.49382488760802   12.90796379968750
C         7.69536247517468    3.67255826268267   11.02872077356582
C         7.73962352580518    2.60920090509805    9.92695132899937
S         6.34166977248125    1.43026466269727   10.05191987396868
C         2.58262355378842    3.93780341495827   13.20616384736606
C         1.78565490150142    3.48920748078121   12.13128384250655
C         0.39810316929001    3.75274356581011   12.16710056053064
C        -0.17351678058943    4.42652220670562   13.21315366943424
C         0.62745894381657    4.87515641576677   14.26672011539512
C         1.97998049159328    4.63673051445228   14.26068668795505
S         4.28319488923176    3.71418188243195   13.32070069789386
C         2.30261685952825    2.81838561280186   10.99291731101730
N         3.51523983356626    2.42534082798212   10.75596843987860
C         3.73404112467278    1.79592248096577    9.45060474495945
C         5.10768908099678    2.14886066732818    8.90154857267218
H         8.95000630535694    1.80221741070684   15.05892525197909
H         5.82636083136835    1.50121613299578   15.65822446607273
H         5.14649067934186    0.90844763724494   14.12755812377961
H         6.47233966954158    0.03124940362889   14.93103434228131
H        10.59334238960545    3.12396244648920   11.97925545274808
H        10.09126156816858    4.57945527375081   12.84611057886581
H        10.82896900569168    3.23921526802482   13.72439506812858
H         6.74000698268426    4.22599821275608   10.98121850910962
H         8.52003654400480    4.37708447757633   10.90597168375244
H         7.70963832048312    3.05986281631039    8.93737787243297
H         8.64154705827402    2.00362735444447   10.01852843773263
H        -0.21456583925888    3.40554521656493   11.34842088076613
H        -1.23513348657615    4.61391777689088   13.22537858040900
H         0.18204051168748    5.40898459573486   15.09162507159157
H         2.60449577096941    4.97930118657170   15.07088820021124
H         1.56001949625053    2.63467199920078   10.21524681864721
H         3.66264771155658    0.70604324392950    9.56204908175890
H         2.96552094327268    2.11703860897844    8.73690399692400
H         5.25743111289871    1.71175696874832    7.91436902924063
H         5.24620741049647    3.23025176160433    8.85830190135003

