42
CSD_code = QAZNIO | q = 1 | S = 0 | Stoichiometry = C16H20N3NiOS(1+) | MND = 4
Ni        3.00558707391791    6.79354663655609    2.91208317187546
N         2.93648597341851    6.16925465254294    5.69013150486389
N         3.65565478499994    6.78775654275855    4.73197422464617
C         4.75536118921568    7.27214540341831    5.30016055040632
C         4.73216854822487    6.95539313199936    6.66389798620119
C         3.56081420252226    6.25845490940809    6.88466098606806
C         5.75842684589555    8.03552876084364    4.52169319223911
C         3.01551085408971    5.67665609116971    8.13375412702263
C         1.65375596147358    5.61831385563739    5.34703868312768
C         0.64344217910751    6.73997045979077    5.09105549770580
S         1.12394951157622    7.79381286978355    3.66943155725319
C         4.91738855372773    5.51319620940111    1.26079209394418
C         4.15214293084407    5.66710904342367    0.06758053102646
C         4.67123816730639    5.20529034549814   -1.16151865265190
C         5.89967010383547    4.60999069161103   -1.22490941890979
C         6.65169210712465    4.45006584751750   -0.05348532996619
C         6.17872515802764    4.88228121546160    1.15649876514973
O         4.52174962126859    5.91120536132409    2.42456398151879
C         2.87155258472724    6.25914779607426    0.12106653055340
N         2.28529285828942    6.72577021291096    1.18211491797265
C         0.95106758419870    7.29909261679146    1.02554864383476
C         0.14468329385218    7.07206936630925    2.29523865948732
H         5.47639040027331    7.20563488820492    7.39065337039927
H         6.69642063338009    7.48633706749250    4.47286044698715
H         5.38569516386817    8.18943950991414    3.50636681107305
H         5.95313614356725    8.99811912522148    4.98945627252750
H         2.05238766757703    6.11807323951234    8.38777519375435
H         2.88554067256693    4.59924820769436    8.03679135132122
H         3.70553327670782    5.86546005753190    8.95031922050607
H         1.77619732819547    5.00599642030136    4.43715689488550
H         1.30506471348871    4.97842438030158    6.15997508470709
H        -0.34928901759056    6.34297052422067    4.89021716773138
H         0.59424413110907    7.40940180445830    5.95050856020571
H         4.07834300874317    5.33458664612423   -2.05463179079200
H         6.29249786190626    4.26254950017221   -2.16654626305062
H         7.62144740142723    3.97886655149612   -0.10583059793097
H         6.75167867946569    4.76278597959428    2.06214242717948
H         2.33157131659912    6.30993853545800   -0.82431814689457
H         1.04109168243843    8.37763915686062    0.84150772777733
H         0.43352444989170    6.84720827705374    0.17048284547953
H        -0.82113458255588    7.57487156447844    2.25241942943387
H         0.00729898129171    6.00679654367327    2.48442179132263

