106
CSD_code = QAZWOD | q = 0 | S = 0 | Stoichiometry = C61H41NP2Pt | MND = 4
Pt        4.57850374862370    3.82603173770820   11.99206919430599
P         6.00386505607992    3.07406996904271   13.60287129933235
P         3.07079341398066    4.37274904225006   10.38101656642173
N         7.06093910139126    9.54085773549311   12.54881975696033
C         5.88457087672765    3.45277712274123   10.52541793941711
C         1.15982689430947    6.15085221508704    9.42149957982098
H         1.14448347588214    5.51288487117630    8.54719114280992
C         3.27692175097386    4.25539780963144   13.44599702973998
C         4.56706315528745    3.99384077725546   17.86455025827471
H         4.19732327241474    4.24399162699023   18.84795521129169
C         7.63205444500707    6.00470754978697    9.32209922714919
C         2.73628182127041    4.67371156594234   14.44937589111066
C         5.90509027591788    7.02664457715049   12.24839793194541
H         5.45123304110880    6.03356280964194   12.13205788695709
C         4.30098458083503    2.74913821996647   17.32015307515406
H         3.72779954420973    2.02544536431804   17.88142340461827
C         0.35825172938681    7.27431600665867    9.48105604672601
H        -0.29563613354928    7.51325131003298    8.65479126269003
C         2.23506163497626    5.30577056063802   15.60429117404820
C         1.95277203711885    2.94672273953859   10.27045927063046
C         6.56444508027135    3.52183406370510    9.52143849242844
C         8.37221528776174    3.22321840896209    6.28536345275138
H         8.54919213588600    2.50238013589326    5.49943621150194
C         0.56788225488525    3.02117410298711   10.33465488656801
H         0.07952880564612    3.98145797465447   10.41939987526979
C         7.28264925467860    6.67529035261670   10.26601286766029
C         5.52247644652378    7.86343187212820   13.29722196617599
C         2.57698352664785    1.70072963924695   10.20144487198465
H         3.66134427433277    1.65438303747797   10.17698254819612
C         4.39612632112344    5.77754230635688    8.44331491563111
H         4.47130839238051    6.51690902943740    9.23049691309198
C         5.75484100960524    4.61004974994026   15.87722569081654
H         6.31083344239417    5.33777369572065   15.30082076362626
C         4.22040913348896    3.85756503418965    6.46128641484785
H         4.15558978132385    3.10584765296035    5.68791777746234
C         1.29973249548570    4.72856700850615   16.45728541844504
H         0.90595597395314    3.74977824551677   16.22116375940073
C         5.49206551631365    3.35800377939821   15.32804885416299
C         2.04112883981527    6.66887368974426   11.60132520549271
H         2.69416106799945    6.42588344496289   12.42816450089562
C         8.68918864049697    5.42748280442021    7.18357801294819
H         9.10449138784790    6.42319280164288    7.11050163519710
C         8.91237655382858    4.49813235462986    6.18492275805911
H         9.50774495674168    4.76572129647006    5.32382283740342
C         7.41806831406043    8.75093999447700   11.55543191158943
H         8.17357889957101    9.13942783241066   10.88487783260826
C         3.72136719682347    7.12871430314113   15.04814338334681
C         3.71185362278773    4.58967178377101    8.68787567317107
C         1.99861654292638    5.83795990921085   10.48980550661661
C         7.75551802918371    3.55999987407204   13.67986676246033
C         3.62407171461482    3.62949289145663    7.68972058495312
H         3.09503111527345    2.70409359062711    7.86996833204753
C         7.91920794067530    5.08902479343479    8.29122249011115
C         6.14205911528617    9.11777238076977   13.39440513167996
H         5.87767614750936    9.79998773825653   14.19195301003826
C         6.87296211803858    7.47556376727390   11.34925832098204
C         5.29749308368446    4.92362666877113   17.14180733538871
H         5.50008399083751    5.89840958936644   17.56036378567722
C         7.37079460050567    3.78935655504669    8.39724598897805
C         2.75591644243040    6.58332739574510   15.91651177077683
C         8.51151767359208    3.29147650604601   14.81970185104382
H         8.05350288654484    2.79794376446792   15.66689822665466
C         4.54853361754825    7.45988048008734   14.23023003185449
C         9.66952736426116    4.59809046007370   12.66404305695851
H        10.11350856087230    5.11367793394266   11.82539732445975
C        -0.18429036462442    1.85874389640871   10.30178348775382
H        -1.26181809993206    1.91773410771352   10.35211253806249
C         1.23884109781447    7.79605556165205   11.65290120536495
H         1.27737641405659    8.43807693608524   12.52045637553188
C         4.80706068139489    0.70402008525504   13.00406473110131
H         3.96400578596216    1.36060679216813   12.79423759044723
C         6.00594107384839    1.26389907978571   13.44226643699318
C         0.88700269562310    5.39766686898515   17.59365249684812
H         0.16188010916060    4.94013710774368   18.25206594910230
C         8.34055993815728    4.21626835520031   12.60442339691074
H         7.75312253509273    4.42289805564498   11.72036593984302
C         6.98125256744261   -0.92438396221620   13.52798903330529
H         7.83149786548658   -1.56159415321612   13.72331617365842
C         0.43681716419540    0.62453296383474   10.20970426587202
H        -0.15702447807480   -0.27735547772102   10.18345004962139
C         9.83991657532616    3.66893938953331   14.87025593240427
H        10.42484235722017    3.45696715537468   15.75368557197282
C         4.98652135093016    6.00123754175309    7.21587111830990
H         5.52189364242475    6.92165827750047    7.03577128640667
C         4.75827598794430    2.42895363820555   16.05398972671508
H         4.54052401704912    1.45961948530816   15.62687733538819
C        10.42035509053538    4.32357997009960   13.79411020519922
H        11.45727286966062    4.62208394173546   13.84230791829145
C         7.60943099785023    2.86885232145297    7.38172869044038
H         7.18615838797987    1.87704106042507    7.45978139689118
C         4.90328147258566    5.03751552014537    6.22324569595560
H         5.37785743888107    5.20383308419640    5.26753791716761
C         7.09752396425306    0.44491763534768   13.69743386281134
H         8.03682464839503    0.87440313547532   14.01520458069652
C         2.32638499739903    7.24480112603806   17.06231358061494
H         2.72950565393750    8.22120898667437   17.29349384554068
C         0.39611306092764    8.09753373193463   10.59710376174100
H        -0.23023716485055    8.97659276545263   10.63759268089597
C         1.39680662134642    6.65296809137572   17.89675886134732
H         1.06751156446581    7.16862843937772   18.78738714246776
C         1.82047295646235    0.54554114267657   10.16265413043873
H         2.30726696997772   -0.41705790844442   10.09958523995797
C         4.69476027665961   -0.66324352365647   12.84268491690398
H         3.76176665399411   -1.09334941911297   12.50844918440166
C         5.78402705453802   -1.47928273998027   13.10683523247604
H         5.70227428746359   -2.54853337126644   12.97729842335236

