26
CSD_code = QAZXAS | q = 0 | S = 0 | Stoichiometry = C8H8ClN3O5Ru | MND = 6
Ru        2.69155029924254    0.58410953595696    4.59806081087391
Cl        4.79528162770391   -0.31101536451548    4.12372330848424
O         2.38596985966881   -1.87597085848049    6.27930241047087
O        -0.06659433367699    1.69073252198559    5.00803585333468
O         2.99299115193351    2.51340094692754    2.22731959693251
H         2.51991059034510    1.69700715022319    1.85648214394377
O         1.96962077242640    0.18514514475406    1.84237978294453
O         1.74408621887346   -1.63630879965123    3.09497935307751
N         3.32072571031939    2.20100845390883    3.50030041863368
N         3.82827751200520    1.71530421898082    6.10609786272036
N         5.36440551093502    2.51526897344768    7.43954776694036
H         5.94486160442227    2.63463296594012    8.25466944932498
C         2.41827071879359   -0.93549364339744    5.63765240623048
C         0.99818001080600    1.28917742236925    4.86938045424303
C         2.04054521338518   -0.35500568339041    2.93769841088603
C         1.38219662288737   -2.37135324159873    1.91929137824948
H         0.50765954354006   -1.91566340751809    1.45113241122080
H         1.16164784491951   -3.38236224704319    2.24959860760961
H         2.21082189460149   -2.36949730462492    1.20912850483639
C         4.16669353220902    2.97561431669847    4.07285991882712
H         4.60844979655315    3.81297436687731    3.54215544490054
C         4.51486527927360    2.69724436703187    5.43597120480324
C         5.47881651981662    3.20844907084038    6.27332052789097
H         6.21522953526566    3.96858076658400    6.11780506381056
C         4.36114543292959    1.62290311692328    7.29441359227172
H         4.05109153081778    0.94011721078679    8.06139331654028

