27
CSD_code = QAZXUM | q = 0 | S = 0 | Stoichiometry = C8H10N4O4Pd | MND = 4
Pd        1.58956805417107   12.94880199393001    4.11696869842805
C         1.51983152862053   13.56088810581976    6.84834503828587
C         2.32479213700491   14.69052503040045    6.21910739184958
C         1.24236622130089   13.45916965030684    8.23667282831052
C         1.01340851802888   14.77562106168803    9.09681335535838
C         0.28207694797474   11.41946267542162    7.88402839482057
H        -0.17452679023754   10.53652814159183    8.31103528820476
C         0.43676157744316   11.55313513130096    6.50731492227149
H         0.06497090400009   10.81239564477122    5.80865823197530
C         1.36098911189053   11.29986134367118    1.61517714948175
H         0.80604038401334   10.69795547336703    0.88423798341667
H         2.37531518980150   10.89726759184196    1.70140176945540
C         1.43431356332798   12.75517188300803    1.13762466520575
H         1.89115170914099   12.78994843088553    0.13977455854800
H         0.42107917480170   13.16537211438356    1.07029128967486
N         1.09393693533353   12.61372761468268    6.02318834963487
N         0.69452059828847   12.34482542012596    8.71683244969766
N         0.73665231881744   11.25246941528062    2.94767348086400
H         0.84532462508179   10.32538163489886    3.35413252771659
H        -0.26403619964588   11.44655625553391    2.87022534883344
N         2.18630285904771   13.53562788026443    2.12177414620486
H         2.03096395481206   14.54116401825158    2.03214226107267
H         3.19261813257199   13.36704583737632    2.04977680659268
O         2.43728324119982   14.59832444028436    4.92889269444259
O         2.82719361032812   15.57252899585083    6.86891465554161
O        -0.06156026031484   15.06101967430286    8.55893327811895
O         1.71686195319805   15.15412454076158    9.98086243599066

