62
CSD_code = QEBLOB | q = 1 | S = 0 | Stoichiometry = C29H21Cl2CuN5O4(1+) | MND = 5
Cu        6.97947352759625    5.34399880597233    3.15071450954904
Cl       -2.03634872788388    9.84202589995717   -2.92580424861604
Cl       11.21991548583518    2.71999924409126    8.18829843300273
O         0.82883336821622    4.78066446419287   -3.27125592578000
H         1.55769213488917    4.75110372939026   -2.58364047297409
O         8.11662939115508    3.84644656736234    3.37314128507362
O         8.07890655339131    6.51825519961302    4.24276402641826
O         5.91331934174348    4.75307153215098    5.02234712793684
N         2.06941211466704    7.54226232824547   -0.36599254224029
N         2.36564915786166    5.49790903078118   -1.33250509448001
N         6.10079610375382    4.44579669121836    1.62920455845416
N         5.76751812067259    6.81641492757195    2.72877470040311
N         6.22231430020180    3.27555993946694    6.70840320059912
C         0.20064013688065    5.93564231084993   -3.16766892135162
C        -0.86881070175455    6.21109420756798   -4.03554795178519
H        -1.13832360445925    5.46066583748171   -4.76139342468916
C        -1.54666898762682    7.40100010715392   -3.95816370844620
H        -2.36714330891407    7.60785609904074   -4.62673711537764
C        -1.17335903739127    8.36025982538370   -3.00331498891482
C        -0.12771429435619    8.12065863763958   -2.13630797300880
H         0.17132661921306    8.84684617782853   -1.39804909818994
C         0.57142824469911    6.91556009481254   -2.20179931865361
C         1.65979385681573    6.66144615419757   -1.30250425240969
C         3.08594895068481    6.93089156986843    0.24008411676471
C         3.91153041724109    7.37651951395203    1.30289078803038
C         3.80549372150247    8.61239794139547    1.95598101455003
H         3.03664192442491    9.30116966886741    1.64148469246407
C         4.68308552735943    8.90989259528362    2.97407590233204
H         4.63220435797061    9.85053990565396    3.49809129988404
C         5.66152734607484    7.97856608052731    3.33296558935469
H         6.37652033696025    8.18044595637610    4.11619564732545
C         4.92554204439817    6.48739772172829    1.73482587991010
C         5.10820271449960    5.20502973127188    1.13663882868970
C         6.34172820644573    3.25428546689757    1.12774017965488
H         7.16031923912633    2.70807420116165    1.57300019653484
C         5.58794084881186    2.73327054604928    0.07308162769820
H         5.82372421877909    1.75495042530991   -0.31323700160346
C         4.55855661762004    3.47844259015499   -0.45702513653810
H         3.95289015990135    3.10924660802018   -1.27038655961193
C         4.29114627139646    4.75028216226897    0.07084605042448
C         3.27682189172132    5.63618248209464   -0.36647530533326
C         8.81359060291428    3.67163255938584    4.43427452300878
C         9.26633548320359    2.35760455172858    4.73575045479148
H         9.01342613906447    1.57722422440523    4.03514085943109
C         9.99391607504581    2.08160206239110    5.85727867990565
H        10.31477984355314    1.07188271223909    6.06229751676850
C        10.33227676762486    3.10651628704389    6.75812671299747
C         9.95468286928950    4.39498537589682    6.49579598937169
H        10.22538438906193    5.18950821334641    7.17380428144916
C         9.19097687244260    4.70768137363179    5.34727781006255
C         8.82989122108376    6.05545418886979    5.11372317851292
H         9.28223301103729    6.78581703304401    5.79962176964230
C         5.97390296219142    3.59913762437262    5.45183606097850
H         5.82001774511467    2.73354275068001    4.78994466919017
C         6.28891534611737    1.91213704519703    7.16955912561110
H         6.11017662744018    1.22538901769578    6.34566657138387
H         5.53902013753731    1.74061273771280    7.94410499772723
H         7.27580606298397    1.71252176383499    7.59181572336286
C         6.44942120422400    4.29484776451071    7.70811704466252
H         7.43854001819944    4.16791899368599    8.15068873144926
H         5.69645969306591    4.22299902030630    8.49409154289625
H         6.38054233869371    5.26996172115493    7.23064314173834

