55
CSD_code = QEBPAR | q = 0 | S = 0 | Stoichiometry = C26H16CdN4O8 | MND = 6
Cd        5.40160573736752   10.15794342000452    3.46233536845957
O         6.02812560649931    8.73698109490190    4.87032193815512
O         3.50165645970953    9.12814016041403    3.72021418853872
O         2.16582318489139    8.52262766097081    9.70788692888271
O         4.04667754258755    8.15950235683417   10.68638026769633
N         3.37560135966614    8.38089780079755    9.69747505013025
N         6.15100322008818    9.02632749567250    1.70839723068898
C         3.94416277650925    8.74630499964678    6.04209567363761
C         5.38735972806727    8.66624674815648    5.95938106342953
C         6.09233313231593    8.47842828907816    7.19538481770781
C         5.45159120517043    8.38908974443050    8.38959794874721
C         4.04488341138838    8.47680081525993    8.44176081861854
C         3.31539800819569    8.64914058764412    7.28678302662493
C         3.13400330904309    8.97315220581715    4.88627159926241
C         6.87991224093968    7.93502511722269    1.73125027487132
C         7.31372678359333    7.29093808125864    0.56541368484344
C         6.96545208186326    7.81573317946710   -0.65523488140032
C         6.18541463364215    8.98443334861613   -0.70378119884639
C         5.77796743484505    9.59618313933707   -1.92459515003142
C         5.80041761440397    9.55925630609990    0.52845839078547
H         7.27975424053924    7.34736495811584   -1.57688770639037
H         7.91160684894868    6.39615552343470    0.63642916607487
H         7.12977010600760    7.55166207906168    2.71237150558816
H         6.08560696848744    9.13639204831286   -2.85208403157901
H         2.04590446694881    9.00023090084576    5.09315411708057
H         2.23791035421819    8.71050443017404    7.35426667565118
H         5.99096603304056    8.25239363900148    9.31520991056523
H         7.16883521235596    8.41637366196005    7.13649789318641
N         4.65353194893660   11.29020762151533    1.70928031837225
C         3.92479275153794   12.38162720774999    1.73305812714855
C         3.49060813461754   13.02640312650745    0.56775960901194
C         3.83838013326083   12.50225261218249   -0.65331957187637
C         4.61843674026143   11.33360338781412   -0.70283532992185
C         5.02550499964636   10.72259192687913   -1.92414654890649
C         5.00377350486939   10.75798753595269    0.52892753136264
H         3.52376218316209   12.97115318369014   -1.57457768959106
H         2.89292609110861   13.92123412977611    0.63951069637633
H         3.67550170461619   12.76450570482849    2.71451541372239
H         4.71761341893306   11.18296603870056   -2.85126235087249
O         4.77539996697843   11.57841667562629    4.87065039595677
O         7.30209753983424   11.18787772285365    3.72064213639340
O         8.63781828709848   11.79763492918018    9.70797510450126
O         6.75726376550130   12.16381345941992   10.68576755705626
N         7.42807712574889   11.93965772635638    9.69735151653352
C         6.85925327112210   11.56904284018617    6.04256063237356
C         5.41612418320447   11.64980575644928    5.95970000166943
C         4.71115700728879   11.83829056724144    7.19555536271623
C         5.35190408921352   11.92900902427599    8.38965654494448
C         6.75855729001306   11.84126820255900    8.44189574677678
C         7.48797679555187   11.66714353320061    7.28714804506903
C         7.66951071490886   11.34127434030979    4.88693116343755
H         8.75749923292629   11.31397343196561    5.09398767933081
H         8.56541384646008   11.60558560268558    7.35474657047334
H         4.81255226249984   12.06679666322667    9.31511724747333
H         3.63469330934361   11.90014725632681    7.13664951950900

