29
CSD_code = QEBQIZ | q = 0 | S = 0 | Stoichiometry = C12H12Br2CdN2 | MND = 4
C         0.55420940505595    4.46232186169559    4.12779634793737
H         1.49466783007411    4.00354690583808    4.44899414742932
H        -0.14439699333720    3.66489905747293    3.85619734906373
H         0.13688159952334    5.02076626331536    4.96144950209580
C         0.79272409548977    5.35314401370452    2.95237330944268
C         0.46448146701740    6.70759388318980    2.98319804457803
H         0.02791409395891    7.14020878053707    3.86919297996937
C         0.71025097491512    7.47735014634409    1.86221936109858
H         0.46912022277272    8.52968439277307    1.85568484396388
C         1.27064479049996    6.88567208905768    0.74230472674509
H         1.46445060609264    7.48393057736938   -0.13128981942256
C         1.57257423309449    5.52501630118226    0.77525252529073
C         2.16930398113303    4.81830667406464   -0.38139577893375
C         2.44730125700564    5.46288348653658   -1.58598659041529
H         2.23426974573351    6.50859056975363   -1.72648286125685
C         3.00844250257143    4.73685830669160   -2.62336706602221
H         3.23102252064883    5.21859462635814   -3.56356802664419
C         3.27880450078076    3.39393928110051   -2.44114564054259
H         3.71640545883007    2.80347679240858   -3.23019068337706
C         2.97391009794613    2.80883931194030   -1.21329225114544
C         3.23795254346754    1.36241908507872   -0.94744957314481
H         2.30461466839510    0.85162358133040   -0.69004707108638
H         3.93277897106655    1.25708951966657   -0.10853864842504
H         3.66991370671091    0.87858726856030   -1.81943043256738
N         1.33020514114958    4.79904812031496    1.87091534240427
N         2.43548761386390    3.51771342571526   -0.22690999302467
Cd        1.89334040219334    2.50695181052563    1.83776690726152
Br       -0.23002562710140    1.23349857483485    1.55902631272986
Br        4.00885019044796    2.20804529263914    3.11982273599850

