55
CSD_code = QEBRIA | q = 0 | S = 0 | Stoichiometry = C20H18CdN6O10 | MND = 6
Cd        3.58522930923132    7.99289861858960    0.00142929612185
N         2.62853481157561    6.18773407079456    0.68944210859503
C         3.26837196830873    5.14862651005192    1.25553498702561
H         4.33659086723999    5.07965521366287    1.33525144960396
C         1.19982848479974    4.65189975625858    1.40542777510787
H         0.32657191382560    4.08171552386236    1.65134872506263
N         2.43212556394938    4.21720947899071    1.69020947623730
C         1.31943936458987    5.89669863797626    0.77202105301500
H         0.56134902099736    6.54674571144531    0.37685021067017
O         5.19583563069386    7.96037161677424    1.56169520630038
O         3.31912533353935    8.06954981851449    2.73931234065589
C         4.54559803320484    7.95074173621340    2.62373200928395
C         5.34963500260719    7.76587597310125    3.90506552212992
C         6.73811983558686    7.72145049750665    3.84908199644883
H         7.23035664487311    7.82126912068397    2.89467259105466
C         7.46548724029594    7.55103361268008    5.01032386151407
H         8.54427484375727    7.51282973222364    5.00044092445028
C         6.79065763391607    7.42511857280445    6.21894570510656
C         5.40296812542334    7.46609256592786    6.28248637852841
H         4.91335255362696    7.36379061185791    7.23904785589815
C         4.68141816934415    7.63759355599102    5.11739693698894
H         3.60340471198102    7.67328883562342    5.12957371922848
N         7.55011191625337    7.24772518364458    7.43663016191008
O         8.75715040346145    7.20626111912839    7.34283680913044
O         6.93221917138121    7.15313423193987    8.47393952729795
O         1.94706453540011    9.59412197553200    0.95335264414102
H         2.19880935522633    9.25841972142098    1.83139890056426
H         1.06618403919621    9.24829475927744    0.77466034008283
N         4.54533321569283    9.79508097946783   -0.68998396576461
C         3.91296510756624   10.83190868095061   -1.26885329009346
H         2.84580123875012   10.90162975470102   -1.36081154930944
C         5.98326033775260   11.32627832032954   -1.39815030336051
H         6.85993171874987   11.89425465338033   -1.63696562109061
N         4.75479454626161   11.76067524823250   -1.69862494161067
C         5.85541264737769   10.08472313400800   -0.75936413248399
H         6.60844004753230    9.43611716348233   -0.35222978423143
O         1.98787505381158    8.01416819865964   -1.57011267727603
O         3.85371447011431    7.93646720330772   -2.76902725568439
C         2.62788897086461    8.04283306782943   -2.63816751299148
C         1.80782712739263    8.23000576448003   -3.90956745516235
C         0.42086156035239    8.29113988871316   -3.83491165505345
H        -0.05940805842978    8.20188544306268   -2.87340971447163
C        -0.32023633604913    8.46436510078413   -4.98701621453211
H        -1.39825064263922    8.51557994209100   -4.96258579976022
C         0.33939252537109    8.57557108823949   -6.20544217271662
C         1.72548307455609    8.51745357785462   -6.28768019026958
H         2.20320768031587    8.60868499192770   -7.25134021122505
C         2.46083114575543    8.34378321097179   -5.13157553632043
H         3.53810860811245    8.29572728390997   -5.15809056004212
N        -0.43453735395721    8.75542414560998   -7.41356045536627
O        -1.63969021800277    8.81050586609952   -7.30373998476328
O         0.17022793889204    8.83836237453658   -8.45957702046728
O         5.20694982342547    6.40880717839931   -0.98193841427222
H         4.95031501429614    6.76000942702869   -1.85347141050705
H         6.09188627184318    6.74571154947926   -0.80591068334122

