37
CSD_code = QEBSUL | q = -1 | S = 0 | Stoichiometry = C17H16BCl2Zr(1-) | MND = 12
Zr        0.45538691855219    2.10429842559899    4.93283958225548
Cl       -1.01903599060575    0.41222054423944    4.15313510771909
Cl        2.00635207848370    0.49045443039046    5.72711741544093
B         0.15164099881461    5.17542957653247    4.79696871841251
C        -1.14958735612885    5.91614020358976    4.12368844125178
C         1.18954972745934    6.28733491094431    5.34634223034601
C         1.09837219692799    6.79994400639217    6.63999055338917
C         1.96143383735254    7.77566468854474    7.10646941821593
C         2.95275984933304    8.27878107843634    6.28113514936843
C         3.06014215389713    7.79760788968833    4.98730410271933
C         2.18980194346463    6.82175456870136    4.53496203989959
C        -1.41012464583632    3.23963294770195    5.92798573359033
C        -1.21523254147944    2.16707260004482    6.84008868293766
C         0.05202333476552    2.33211686521708    7.43208145212907
C         0.63936810295495    3.50018591041181    6.87971977648446
C        -0.27137691922795    4.09559226234125    5.95644863045329
C         2.14719831226418    3.52027774005094    3.98154172924222
C         2.26780930253089    2.36211646011935    3.16972161361000
C         1.05614212747590    2.19935212346256    2.47038829482762
C         0.19222486893496    3.26311452277685    2.84737736941016
C         0.86530315766865    4.11163851737498    3.77316549991929
H        -1.88222382453763    5.20176033061882    3.74801286430226
H        -0.85788719904195    6.54939153630468    3.28702654375733
H        -1.66066875891299    6.55432222348514    4.84313106105320
H         0.32767330374805    6.41777111198859    7.29602333899914
H         1.86564853512245    8.14884866802557    8.11986571043791
H         3.63472915526542    9.03966903146730    6.64219060546864
H         3.82969041536925    8.18857238739350    4.33133774827771
H         2.28396049319475    6.45808254207743    3.52049583982253
H        -2.33175748610094    3.42621209558922    5.38283739065181
H        -1.94824934993483    1.40981679390847    7.10353535239072
H         0.46505805603657    1.72357743964451    8.23127682036076
H         1.58520653388059    3.93278637584844    7.19710070873372
H         2.94838290087305    3.95061463198004    4.57770317935264
H         3.16208941284974    1.75920698194756    3.04188060590349
H         0.85448818137751    1.45003024623415    1.71012861847131
H        -0.78389182679496    3.45070733092702    2.40768207039561

