87
CSD_code = QEBWIG | q = 0 | S = 0 | Stoichiometry = C42H36FeN6Se2 | MND = 6
C         2.00217087024626    7.02372876407795   13.92831817302464
H         1.35974840685061    7.18196780082807   14.81010574555143
H         1.68758619496438    7.71853377958594   13.14634701636138
C         1.77519784568133    5.61185911837782   13.46122168430047
C         1.42424557541082    5.35102505369571   12.14380448776456
H         1.37670421852556    6.16531791313492   11.43734585270107
C         1.14005853919266    4.06210877309618   11.72724267677593
H         0.87893773605216    3.88021409345933   10.69614938952764
C         1.18460999634996    3.01751689526609   12.63532211962616
H         0.96014111059685    2.01031902410635   12.31689963345014
C         1.51205449422204    3.26604984696278   13.95531633990776
H         1.55325857374857    2.45382397328336   14.66633372946493
C         1.81089629883659    4.55648782119536   14.38147223833939
C         2.17420380111366    4.81393046602899   15.78324259756681
C         1.44770788238367    4.25293196240654   16.82886747758645
H         0.59592322375297    3.62709201155706   16.60581038475830
C         1.79518931255935    4.51090978112905   18.14198571547173
H         1.22027089348889    4.07594943936606   18.94601565431562
C         2.87963996947348    5.32486305030417   18.42557055050519
H         3.15476780991542    5.52447216438814   19.45021762053367
C         3.61462759444689    5.87957642487183   17.39210756742959
H         4.47075546305179    6.50174668485233   17.61019769275642
C         3.27029187967623    5.63328837589699   16.07146623200611
C         4.06858266435421    6.21529668211137   14.93561316349149
H         5.04350525574934    6.55282072978889   15.28875148478622
H         4.23703278453581    5.44507315770939   14.17988002496571
C         3.37617736235917    8.49969171614642   15.21219634484891
H         4.37633542354997    8.62205435774121   15.63374149382187
H         2.67313595971748    8.32948553976662   16.04062586070628
C         3.02320182857386    9.74876170351290   14.46525063836619
C         2.14074689546673   10.68801210897948   14.97242858442081
H         1.71203054692969   10.54399154868468   15.95215922558859
C         1.81290888570060   11.80015898536648   14.21133809339914
H         1.13169280279085   12.54665112753170   14.58823864096402
C         2.36501635847226   11.90495985868176   12.94498519676561
H         2.12379386115330   12.72952275744424   12.29404507076590
C         3.24612955560243   10.92964950100316   12.51863748896597
H         3.67646678988035   10.97782838973449   11.53245817439027
C         6.86513768644004   10.62161921798760   11.73329785229230
H         7.86169202128827   10.68545831796517   11.26683661768222
H         6.99628228082313   10.46489217824267   12.80544716058129
C         6.17233204489399   11.93051788457069   11.49580474587253
C         5.63468778288991   12.64366885971217   12.55748565070712
H         5.67330183219318   12.21852667844196   13.54976162595688
C         5.06537502076963   13.88874801178832   12.35596483448265
H         4.65140490405153   14.43345208933142   13.19122251612536
C         5.03465139031501   14.43511237040857   11.08360841562835
H         4.58902690808341   15.40514007323579   10.92045939671148
C         5.58744196792644   13.74416275774287   10.02148770063827
H         5.56601122980926   14.16951124609102    9.02893403839449
C         6.16536174980234   12.49288803005373   10.21413320990455
C         6.79074691532178   11.77151416406931    9.09477137931563
C         7.62549197987683   12.43772050771155    8.20249468930457
H         7.80563628342397   13.49434815897152    8.33566455505735
C         8.24004402490529   11.75513055961537    7.16928048948951
H         8.89004931695387   12.28240732556056    6.48717691532524
C         8.02096652138618   10.39706218261361    7.00962970304718
H         8.49630120153937    9.86173872183891    6.20150786895501
C         7.18401128093190    9.72739704681498    7.88535905905045
H         6.99158760441242    8.67227975853010    7.74868720684168
C         6.56788761215706   10.40009800911973    8.93035585912579
C         5.62212485364752    9.68638015408049    9.85808970122083
H         4.71684614265077   10.28823015154113    9.96974085489605
H         5.32323724000694    8.72758173882680    9.42923388616748
C         7.16587719288943    8.35160355116348   11.13533009477896
H         7.68832602178097    8.32224469580674   12.09563669122203
H         7.90083636538347    8.54539327482244   10.34113452422699
C         6.50056773328551    7.02568676599549   10.93563179786247
C         6.97335735668950    6.09357334559039   10.02551388373223
H         7.85206219240177    6.31651742315019    9.43978286752355
C         6.30532100808273    4.88875839347583    9.87279326718481
H         6.65074006905512    4.15112267842114    9.16560860707174
C         5.17146588284077    4.67265427544082   10.63907030908179
H         4.59670856219568    3.76520325619907   10.54913341357569
C         4.76810017679530    5.65352393848384   11.52491593035817
H         3.86845081945060    5.52611538211935   12.10523699268131
C         6.73820911226774    8.44703472173534   14.74075519748292
C         2.85519749015739    7.87872772609175   10.21698916033929
Fe        4.61444779578806    8.36800086995848   12.57809572332987
N         3.40052892897818    7.35671287963578   14.28625868516620
N         3.60080586816581    9.88033914707577   13.26018176392678
N         6.16851236274669    9.43090625140662   11.20274188241607
N         5.41386559645765    6.80816110591885   11.68891196347883
N         5.97821274071637    8.50228063630396   13.85128972314150
N         3.28139914625613    8.22833586223837   11.25062427642249
Se        2.22637755412426    7.36604424662632    8.69545614281771
Se        7.82754756159716    8.38270199541557   16.07906110343738

