69
CSD_code = QEBWIF | q = 0 | S = 0 | Stoichiometry = C30H26Cl2N10Zn | MND = 4
Zn       -0.58425585033822    7.54742762386434    3.63497643044455
N         0.04189161311404    6.09294394427682    2.22665462261352
N         1.15489948657728    4.44253131676165    1.25776935111291
N         1.83795278108994    2.17630158069629    1.37621948136063
N         1.85838610163392    1.15327777664400    0.50061360988850
N         1.58081157927751    0.06696048160867    1.07697117788411
C        -0.82988877706284    5.42640848286859    1.39092116802924
C        -2.16772730635313    5.65812441692537    1.09592130042160
H        -2.69317611207557    6.48558289066474    1.54373651145207
C        -2.76720572889924    4.81376880680631    0.18299147310385
H        -3.80369950270062    4.96791848418001   -0.07528315913742
C        -2.06858763986758    3.77206396413306   -0.43040006302914
H        -2.57960115375222    3.14404477939860   -1.14450503406068
C        -0.73638140329888    3.53087297391180   -0.15202626539644
H        -0.19391608574947    2.72986388895666   -0.63101272931107
C        -0.13420395467784    4.37409355512291    0.76796887145646
C         1.20440960981705    5.49605496290052    2.12252807771918
C         2.45209287758973    5.91983547795143    2.79310306998882
H         2.26636137906759    6.83807950323163    3.34890868539317
H         3.22804564403734    6.11500690060574    2.05349243313160
H         2.81321569845590    5.15761226710697    3.48321198252013
C         2.19449570942902    3.50166267125099    0.95454015967434
H         2.35761937451446    3.44101512281866   -0.12914473673646
H         3.11911352801842    3.82203645690724    1.44825923076305
C         1.50100827617626    1.70159085906932    2.61222299154815
C         1.29005661356276    2.27594984176791    3.85924509382013
H         1.37151942938932    3.33852607595793    4.02944643454442
C         0.96155207515879    1.41469023434807    4.88216293372241
H         0.79439090381251    1.81856337276358    5.86878855736630
C         0.84477346497060    0.03179892556788    4.68857043214911
H         0.59191520818026   -0.58715807597480    5.53564427726982
C         1.02854238724944   -0.54392601038902    3.45442156015784
H         0.93194009333876   -1.60420103320147    3.29111457437436
C         1.34946129201491    0.30810426657686    2.39949580409246
Cl       -2.35186679746941    8.63486430906931    2.89424293569747
N        -1.21039395935679    6.09314744523273    5.04422395504058
N        -2.32325787101145    4.44260121445858    6.01304191132114
N        -3.00631883024933    2.17636478170257    5.89454434692378
N        -3.02678339115551    1.15327502898176    6.77008746608682
N        -2.74923504956165    0.06699270174662    6.19366441339360
C        -0.33854375370191    5.42663962962971    5.87989710333259
C         0.99932548134612    5.65835007802070    6.17483966409281
H         1.52466432778250    6.48585599607562    5.72702316379093
C         1.59889143147742    4.81389871160562    7.08758687230736
H         2.63543087324996    4.96792346639604    7.34577233167240
C         0.90035256039355    3.77212249896950    7.70093631918880
H         1.41144646841771    3.14403975977675    8.41492731493833
C        -0.43188477486764    3.53094463377587    7.42268491598153
H        -0.97432834270272    2.72991996598416    7.90166221885948
C        -1.03413229387407    4.37422938108348    6.50279365768102
C        -2.37285629547006    5.49618974378579    5.14833760890273
C        -3.62058932550470    5.91986600602285    4.47776621815484
H        -3.43497984330948    6.83803794676077    3.92180869802588
H        -4.39650432699316    6.11510419363674    5.21739648203429
H        -3.98172388545699    5.15747571718998    3.78783662207935
C        -3.36281484198398    3.50169716684087    6.31631718424025
H        -3.52585198966564    3.44100303919059    7.40001062300523
H        -4.28746619236197    3.82209343735473    5.82268698656847
C        -2.66949257316347    1.70169453950365    4.65849406098041
C        -2.45857374641556    2.27611858254454    3.41149872215233
H        -2.53999689945746    3.33870562820941    3.24135513072997
C        -2.13016141713496    1.41490805623950    2.38850856128198
H        -1.96300745707965    1.81884043351020    1.40190704406827
C        -2.01347660189547    0.03199779125283    2.58200207060142
H        -1.76060183389447   -0.58690852994574    1.73489657835027
C        -2.19726335828759   -0.54380078068118    3.81611419990475
H        -2.10067127575619   -1.60408764924156    3.97934837320659
C        -2.51806407986809    0.30817959188431    4.87111616491399
Cl        1.18241825329706    8.63578869735879    4.37634177216316

