73
CSD_code = QEBXAY | q = 0 | S = 0 | Stoichiometry = C32H26N12O2Zn | MND = 6
Zn        4.88755345193076    0.00005647716910    5.04504121613375
N         4.27292828586347    1.99086981572318    4.76837838564572
N         5.59260086935120    0.71102978945901    6.70700994943694
N         6.25534673734750    0.31449220053699    7.78565152510268
N         5.78945077071280    2.48911811021897    8.01971654703863
N         8.96854884400159    1.41429190724435   13.55954436976088
N        10.43960706952564    0.92620326029164   15.13712269826530
O         6.89290375125843    0.43871317662022    3.97701010544981
H         6.79116637596058    0.90020436109186    3.13988735692047
H         7.52226248947306    0.92890907645810    4.51346066964929
C         3.56661075800267    2.54235485235892    3.79230589999901
H         3.34335047086042    1.88962644044262    2.95835122806990
C         3.14038207803849    3.85903013949460    3.83712261277066
H         2.56702281997269    4.27297778824159    3.02310858290025
C         3.46388372179306    4.62936982521146    4.94841121188615
H         3.14655412809490    5.65995932035104    5.01197108424338
C         4.19187695472085    4.05645474428540    5.97169896721505
H         4.46758286585777    4.59847354919761    6.86151172806381
C         4.57846805884694    2.72127374472280    5.84895670088455
C         5.31758851359810    2.02150887874510    6.86581925699231
C         6.36608002155469    1.39907700407777    8.56415625854877
C         7.03302552497235    1.39886313547415    9.84873648942132
C         7.10099328456218    2.56891787874434   10.60263898551513
H         6.65066216664983    3.46585964482162   10.20753822440156
C         7.73847622029500    2.57705761358332   11.82539831489630
H         7.80437211685314    3.49119043074931   12.39628262793478
C         8.31614796428591    1.41013816530467   12.31978015925175
C         8.24742386028620    0.23702109406178   11.57160353593070
H         8.68041222102967   -0.67180310907280   11.96205399020425
C         7.61444591571018    0.23391316952597   10.34660263642498
H         7.55570426172691   -0.66957721258931    9.76014343565002
C         8.64897102441926    2.16898117896045   14.65892512823563
H         7.80531347029403    2.82720117913547   14.67608105427763
C         9.56097094074881    1.84601737440525   15.61895759177936
H         9.64387537014313    2.21544619089719   16.62123896415541
C        10.06107025438155    0.68487666684028   13.91614819535206
H        10.56183768683121    0.01627537923799   13.24515449516218
N         5.50219852036289   -1.99116553991849    5.32218151920210
N         4.18264807840842   -0.71101379221119    3.38358516913181
N         3.51992582548854   -0.31434307288443    2.30504356345576
N         3.98541873669999   -2.48904792395219    2.07088820370284
N         0.80634445351612   -1.41370448170335   -3.46880739193466
N        -0.66470153301668   -0.92545715056700   -5.04634808842444
O         2.88446194269011   -0.43993973771095    6.11711533058525
H         2.99162081611629   -0.89269659922826    6.95831850449210
H         2.25675560010660   -0.93937198323254    5.58732296989879
C         6.20833597578091   -2.54293644082081    6.29823119279542
H         6.43182874593761   -1.89034409553201    7.13223145012583
C         6.63414973097346   -3.85973684680088    6.25341939659947
H         7.20735032914596   -4.27389014791457    7.06744183999367
C         6.31043383257456   -4.62994111261996    5.14208685574093
H         6.62741380766527   -5.66063863180379    5.07852602226341
C         5.58261036107566   -4.05677572243262    4.11883449617317
H         5.30672431466487   -4.59868107412322    3.22901112193490
C         5.19639607567704   -2.72146788978521    4.24159793510266
C         4.45741017516835   -2.02154805066670    3.22477592421902
C         3.40898270704062   -1.39888209142764    1.52650086496917
C         2.74198719720354   -1.39854669469188    0.24194858107343
C         2.67369643510359   -2.56862295846509   -0.51189315868878
H         3.12378287815802   -3.46566520848978   -0.11674194076316
C         2.03616150421306   -2.57667543315242   -1.73462525169752
H         1.97000419994945   -3.49082576022894   -2.30545342607424
C         1.45877364632832   -1.40963644734528   -2.22905140533222
C         1.52781151854678   -0.23649845927564   -1.48093734237761
H         1.09505231647119    0.67241504475570   -1.87143791843122
C         2.16082561156452   -0.23348255582598   -0.25595343468741
H         2.21983649910062    0.67002578446229    0.33044672833166
C         1.12574191596309   -2.16851387786035   -4.56815394619809
H         1.96928557967640   -2.82688107976646   -4.58530459064688
C         0.21375689148469   -1.84544707529125   -5.52816819014114
H         0.13074152475759   -2.21492571355392   -6.53042273188088
C        -0.28606183614432   -0.68412169757288   -3.82540299630838
H        -0.78667569840394   -0.01538872438204   -3.15442603977309

