61
CSD_code = QEBXUS | q = 0 | S = 0 | Stoichiometry = C28H28N4Ni | MND = 4
Ni        1.88617361924284    6.32300434740105    0.00001643544959
N         2.95076560177567    6.14718754277137    1.65952977814374
N         3.45284686249745    5.94535587604512   -1.13566675288198
C         4.28472592780964    5.86107919953468    1.70800375023454
C         4.74638873696932    5.80569907631083    3.06065634604680
H         5.75778346954720    5.59659590367323    3.35099871035735
C         3.67673469625684    6.06132847884671    3.84237957107373
H         3.65993941549545    6.09914204222054    4.91242559485586
C         2.55732181905032    6.27748920099147    2.96696366762545
C         1.27187865128323    6.57392922398098    3.40806772427331
C         3.53956153699549    5.88259910399956   -2.50146413590740
C         4.88852915371368    5.58550230673088   -2.89923585459519
H         5.24041137725796    5.48591356310797   -3.90611514820354
C         5.61451604564103    5.46157918532238   -1.76835710168056
H         6.65894520927314    5.24187068421310   -1.65909937323386
C         4.71400352070139    5.68757633755755   -0.67978460110938
C         5.12277425729769    5.64361271015866    0.63548431002971
H         6.16069429315467    5.42656014255188    0.83799209308196
C         0.98209298673303    6.73644353914360    4.87489270204871
H         1.74498141155878    6.24686782243927    5.47592174872973
H         0.03360320843122    6.25199530837211    5.11083017657258
C         0.90259245341514    8.21890897605795    5.29023537557287
H         0.18424013885140    8.72388169401638    4.63590712227057
C         0.41324159720399    8.32554988658809    6.73253263838741
H         0.34983387350257    9.36803891529399    7.03578200901505
H         1.09888377301520    7.81525209156240    7.40617788951448
H        -0.57207755400637    7.87751578217331    6.84360579979462
C         2.25371570404093    8.90963029143968    5.13496966502662
H         2.16802752649563    9.96439579766232    5.38702838238527
H         2.61227835465549    8.83028682026788    4.11168276241123
H         2.99267855168786    8.46166009797424    5.79610188702217
N         0.82166219544825    6.49912720089051   -1.65953400863773
N         0.31957841108915    6.70097114513928    1.13566490390923
C        -0.51229118012830    6.78526283803129   -1.70800920623936
C        -0.97395608040267    6.84064486856597   -3.06066042060519
H        -1.98535372834748    7.04973798874696   -3.35099942775879
C         0.09569775692928    6.58502280467455   -3.84238707753170
H         0.11248976536345    6.54720873859780   -4.91243313030645
C         1.21511264359598    6.36886404949784   -2.96697202424771
C         2.50055534832489    6.07241991526369   -3.40807656078066
C         0.23287165436527    6.76375659635730    2.50145910478711
C        -1.11609655049863    7.06085059102538    2.89923160837144
H        -1.46798113759423    7.16043180687609    3.90611107982492
C        -1.84208316818455    7.18477558370760    1.76835274904217
H        -2.88651414608464    7.40447760434675    1.65909484699350
C        -0.94157090264490    6.95877815556098    0.67977948222933
C        -1.35034046507927    7.00272982818336   -0.63548990088885
H        -2.38825947729229    7.21978406776435   -0.83799900014742
C         2.79034298421780    5.90988512159860   -4.87490058778562
H         2.02746006322782    6.39945842422166   -5.47593898266233
H         3.73883640458554    6.39432435104153   -5.11083833201277
C         2.86984145301011    4.42741363961860   -5.29022687606160
H         3.58818977530493    3.92244657081771   -4.63589000477901
C         3.35919912766139    4.32075691171802   -6.73252112343798
H         3.42257493604970    3.27826584108798   -7.03577052427571
H         2.67357843240774    4.83107822396095   -7.40617006832365
H         4.34453347897592    4.76875879231487   -6.84358718386885
C         1.51871803113926    3.73669237461863   -5.13496148931968
H         1.60441201105636    2.68192439044134   -5.38700805528662
H         1.16014615453825    3.81604577297115   -4.11167811112726
H         0.77975998941832    4.18465385395077   -5.79610485138131

