43
CSD_code = QEBZEE | q = 1 | S = 0 | Stoichiometry = C16H16MnN6O4(1+) | MND = 6
Mn        0.65538574298712    4.60445576557766    1.96725845420886
O         2.97946915263774    7.78669350713985    4.36895927512449
H         3.93170122526008    7.68823426222826    4.24873345600875
N         1.94647584795422    6.04489308626995    1.30513219410038
C         2.30170636971761    6.81294602444719    3.63274786066450
O        -1.33319240780479    5.20886983550793   -0.10301289508207
N        -0.02515337272130    6.11851601591939    3.20250884393931
C         2.52870531605674    6.90260914498860    2.12791504265191
O        -1.15937395508200    2.62339498912613    3.14556836347102
N         2.05640225037930    4.35628319212157    3.43660224323443
C         2.31536624039477    6.39854138184570    0.04383179927082
H         1.98158039887833    5.85393038086840   -0.81738043671917
O         1.82135361786895    2.52734648120428    0.25547600235289
N         3.24915933049714    7.81466124655169    1.43688596567812
C         3.12191322654501    7.49243763562509    0.11455790539120
H         3.60409255867767    8.06017879605995   -0.65345510150841
N         0.12105132942101    7.84874075874891    4.55824631403730
C         4.02079494750795    8.93779171138484    1.90879124025425
H         3.50238394046295    9.45461395833208    2.71494962614500
H         4.15843070340921    9.63201361023151    1.08173339253609
H         5.00833791290481    8.61886805031157    2.25168963619195
N         3.42238685402593    4.95734314691907    5.05502904595342
C         0.80035294481783    6.95200701316921    3.81752949818830
C        -1.28454555818511    6.48986462102012    3.55935436046560
H        -2.15086251419647    5.97310630338263    3.19618569257789
C        -1.20389162539046    7.56007824410622    4.39875091729356
H        -1.96952353847515    8.12780922871370    4.88491131437874
C         0.62874869253029    8.91724493446777    5.37801855940658
H         1.24573569102353    8.52382539831628    6.18569336036246
H        -0.21335585549169    9.45749400678360    5.80438608034977
H         1.23153117110022    9.60476970235467    4.78575451778944
C         2.62351173735303    5.38259423063754    4.05038135352497
C         2.51648909461437    3.23052513765005    4.04740010011546
H         2.21345460754253    2.25139994361963    3.73250516085351
C         3.36286072221706    3.59167591057104    5.05006409925543
H         3.91462542857609    3.00036186168327    5.75048207846522
C         4.20895873928248    5.71342308113801    5.99806533551557
H         5.16292463302869    6.01648266995936    5.55919751190342
H         4.41885052489618    5.07892761546198    6.85731560067861
H         3.66646808244127    6.59378671189838    6.33912228735183
C        -0.55668534277129    4.97975214367974    0.70429719026445
C         1.37644782468900    3.34013085882014    0.92565471240264
C        -0.44957268958097    3.39777740115652    2.69406204095140

