42
CSD_code = QECFUB | q = 0 | S = 0 | Stoichiometry = C16H19BrO4PRe | MND = 6
Re       -5.47546530481888    9.98603254847293    9.15924434005533
Br       -7.22283897204626   10.57972274548782   10.93859797368998
P        -7.27969346338028   10.35344863990657    7.55886971221714
O        -6.52958471232434    8.03368230537102    9.21711875985983
O        -4.20276526126512   12.79162897008944    9.42211198074624
O        -3.78026595469930    8.96507240486308   11.54129001438923
O        -3.43956643502487    9.10104963292513    7.01288574628900
C        -8.85991780114543    9.62634200001203    8.13560736718904
C       -10.07130962275518   10.25601424564614    7.87677812121836
H       -10.08935478545941   11.21091383329677    7.37634617789406
C       -11.27490714219718    9.69165832025388    8.26584241634107
H       -12.19760564938988   10.21442698025087    8.06324097801832
C       -11.29610543191853    8.46503190368367    8.90889776895505
H       -12.23284477642963    8.02130960273213    9.20853571843561
C       -10.10647994817742    7.81829146708642    9.17023212252431
H       -10.10937069270357    6.86697451875460    9.68269782392057
C        -8.88063944482088    8.38470849751506    8.80706617788818
C        -7.68641398884695    7.65358159727819    9.20918261406440
C        -7.64441269978499   12.11926584758550    7.11820722441179
H        -8.51971939403303   12.15997413935685    6.46146181533098
C        -7.91795464002784   12.92455407817352    8.38559680152921
H        -7.02132158421400   12.97643180782249    9.00152740453797
H        -8.71017776794484   12.47902138325813    8.98565208322065
H        -8.20914076479405   13.94126572701322    8.12750421848035
C        -6.43541826253708   12.68432865386347    6.37324784968288
H        -6.51880364996995   13.76705959407595    6.30314687199911
H        -6.36014850982283   12.28512021417442    5.36392949938006
H        -5.51298501563474   12.44948067504584    6.90876140147087
C        -7.11748459937072    9.53395901882735    5.88139353704750
H        -6.20566686663247    9.97166963427318    5.45428101756859
C        -8.29549309371327    9.79700545375769    4.94859228443273
H        -8.14771903698641    9.24861317307355    4.01943525997540
H        -8.38808562772883   10.85078232493364    4.69844636286396
H        -9.23051537126488    9.45794078829573    5.39343113442750
C        -6.88868451042311    8.03158081534344    6.03357197883820
H        -7.78364431443648    7.53517156748701    6.41083455437299
H        -6.05864376569338    7.82402686967148    6.70920825988065
H        -6.64521717996038    7.59441849022874    5.06649257207990
C        -4.66039147573881   11.74660799520613    9.28971930902237
C        -4.35241881480031    9.36032251247119   10.63930494285315
C        -4.20318670663595    9.42566293938200    7.80477183270589
H        -7.89163696046863    6.63334608316264    9.57763597023908

