56
CSD_code = QECFUZ | q = 0 | S = 0 | Stoichiometry = C27H23MnO3P2 | MND = 8
Mn        6.97050554190853    0.34908859016064    3.19646020887366
P         7.37929419092253   -0.58841801203780    5.39418704427929
P         9.06979842845824    0.99161366035034    3.65122684568789
O         6.17073655861668    1.55770826866072    7.01394488075955
O         5.73491570431005    2.88482574229227    2.43256489981655
O         7.50603383949594   -0.54965139870555    0.46703724603959
C         7.00258530843257   -1.65835310693958    4.05603081084635
C         5.74102822779469   -1.42108633464257    3.47310268086407
C         5.08725912919137   -0.29134523222075    4.03609245533314
C         5.85769032899741    0.27950129203481    5.09214315111635
C         5.48641301706971    1.29401150933753    6.04582180507612
C         5.08887979581761   -2.37244233094498    2.51243824644862
C         3.65544637370258    0.05626340958698    3.75368380179377
C         6.27919061569639    1.89829853506331    2.69911200387955
C         7.31270234103922   -0.14270260371816    1.53308563059779
C        10.20489334273629   -0.42892863661447    3.71344682743174
C        10.67110297964391   -0.90653666529847    2.48951016955845
C        11.45514517929506   -2.04339513115936    2.43983443762875
C        11.77451498250436   -2.71808681282787    3.60814119723466
C        11.29644084412634   -2.25957121132160    4.82443780846194
C        10.50539909729937   -1.12509930224381    4.88035455152807
C         9.93518079256947    2.04749321898981    2.42663269960191
C        11.27246914287886    2.37947415334905    2.62593345475637
C        11.92658920882111    3.19149365152163    1.71902425186229
C        11.25118692604994    3.68074801283576    0.61181831498089
C         9.92011207614300    3.35443994348835    0.41140368627127
C         9.26087477014017    2.53990663965732    1.31624281347277
C         9.36870890810981    2.00028948519152    5.13572282562882
C        10.49670102173839    1.91366322476587    5.94384460531955
C        10.62087121662511    2.75417373453630    7.03620740080135
C         9.63707217229506    3.68638516062656    7.32022384945896
C         8.52790475111106    3.79726007230648    6.49771827651255
C         8.39622131452553    2.95858759582734    5.40866126970462
H         7.61019051065113   -2.52190658190214    3.80368986714310
H         4.52280709153180    1.81513615631858    5.87206351671002
H         5.81789502215937   -3.07442302473728    2.11151915470344
H         4.62493244385317   -1.84603378153221    1.67913294467426
H         4.31179555211453   -2.93782962303343    3.03190558295716
H         3.00172484274894   -0.57523814887858    4.36084209090799
H         3.41324526781973   -0.11346123004756    2.70569804304197
H         3.44193885252575    1.09673914510401    3.98928708308285
H        10.40104916743977   -0.38043147749199    1.58277177722632
H        11.81272408224875   -2.40894431148400    1.48861868524332
H        12.38686098513542   -3.60693402756387    3.56994870471000
H        11.53321038373070   -2.79127795302967    5.73474299462529
H        10.12246525131297   -0.78516779405634    5.83429986959946
H        11.79778525929248    1.99578334271954    3.48935351109005
H        12.96501946443121    3.44473092887610    1.87488906137350
H        11.76433575805613    4.31632735969229   -0.09445189052305
H         9.39376028044851    3.73392136876305   -0.45136278792048
H         8.21814337311318    2.26678876213058    1.17265437670804
H        11.27530285587309    1.19547798080872    5.72927583283136
H        11.49174788312362    2.67696238741184    7.67130043785142
H         9.73688914382929    4.32884234046719    8.18242308850142
H         7.76362372836393    4.52882050567593    6.71120049774810
H         7.53808467212779    3.03410855386641    4.74910740609385

