65
CSD_code = QECGAG | q = 0 | S = 0 | Stoichiometry = C23H31N2O5PSi2W | MND = 6
W         6.03916376452921   10.03759224899317   11.07572083595729
P         5.06760156528708    9.39373322819082   13.24632299311350
Si        2.01959144672899    9.50429964245411   13.20885726668055
Si        3.79083505802397   10.66900426026549   15.77103256613696
N         6.28224838650427    9.59002443825422   14.36762870757203
N         7.75578350876752    8.39284401967709   15.66011191309214
O         4.99689445748011    7.52532045301692    9.50948840301460
O         3.63090179176576   11.95361625842809   10.46420533237848
O         7.47699415333460   10.99166860570848    8.46431124693268
O         7.25995023423936   12.33765711385075   12.82546789411591
O         8.36078869741938    8.20913466494529   12.12145662609548
C         5.32299704870865    8.46478398961943   10.07555743975367
C         4.49332071247642   11.22197214677681   10.64525696572899
C         6.94520216972716   10.64081366871594    9.41523229870340
C         6.80983805754396   11.52969127408167   12.15554741348719
C         7.54882502586723    8.87774234765136   11.66819541762686
C         3.62674106918645   10.31101568227804   13.88834766356835
C         4.12862978404435    9.08649986390790   16.78897975229364
C         5.13517415137535   11.99518841901843   16.03940207120219
C         2.15009542118681   11.41725609766420   16.39763175731635
C         0.68780831470713   10.86088977443565   13.07641680483573
C         2.24117804851897    8.76117248210835   11.46796395807223
C         1.44312646254255    8.11380267597307   14.38502165419946
C         4.91646201456105    7.63201092922108   13.57786794096166
C         5.95882872823543    7.25455624915823   14.35146771658974
C         6.69698871916460    8.43894611107084   14.83100546409947
C         8.00930137246602    7.33731514068167   16.60989885062347
C         8.50109672551461    9.60849415880175   15.89150165783849
C         6.34103915915361    5.85558024805206   14.56610185325118
C         5.42604412605981    4.93886151824487   15.07646933208154
C         5.77812430014565    3.60947111003050   15.22322862177813
C         7.03901749667133    3.17847161332952   14.84673376107268
C         7.94817384154770    4.08184492212462   14.31997912943607
C         7.60552594118054    5.41317481160264   14.18073830398908
H         3.72095197110334   11.28134192606547   13.38904135654785
H         5.18265046162732    8.99448299871463   17.02772592359432
H         3.83838862288381    8.19256769740671   16.24687550752470
H         3.57901499467250    9.10114275832574   17.72509771194116
H         5.36999326114948   12.11344232884984   17.09340123225175
H         4.80429067715307   12.96164917333982   15.66916077119041
H         6.04789510240050   11.73433875804930   15.51509178399871
H         2.25767506403641   11.71408864252564   17.43526302782926
H         1.32338612833444   10.71838771527422   16.34221940884588
H         1.87515404117303   12.30249546462301   15.83516725527358
H        -0.22425980541569   10.45167286463880   12.65519856775764
H         1.01139631368254   11.66961584143397   12.42869612291555
H         0.43994516031343   11.28888013969109   14.04035335600063
H         3.07633659461741    8.06979621745104   11.42437607858136
H         2.41839205188301    9.53166353088459   10.72350965093043
H         1.35026442727122    8.21819136606469   11.16402380223348
H         0.50970242757082    7.68600756359844   14.03301722333345
H         1.27664672154332    8.48184526933711   15.39159754443203
H         2.16822805803303    7.30826936611628   14.44588892044428
H         4.27140795776343    6.94026395701615   13.06194295934454
H         7.19368005040463    6.62020003898526   16.62467718144890
H         8.10684550661609    7.77104256285091   17.60915923886328
H         8.93740786584712    6.81100755315256   16.36963554406116
H         8.42339038809198   10.24221281992434   15.01105737015333
H         9.54583248221750    9.35381518807215   16.07063314147667
H         8.11156318573750   10.15903933563385   16.75330155636117
H         4.44222807794992    5.27770960045828   15.36957171854917
H         5.06414363472349    2.90724642958552   15.62775231398521
H         7.31066366920241    2.13939806382464   14.95751537524388
H         8.92732636024277    3.74563710459840   14.01236739163950
H         8.30526679251176    6.11759755527093   13.75633134970319

