80
CSD_code = QEDBAF | q = 1 | S = 0 | Stoichiometry = C30H45NNiP3(1+) | MND = 4
Ni        3.87938222825774    9.53371437056154    8.86092706206168
C         5.95663902707279   11.49777684945580    9.34939940971369
P         3.66082521622589   10.98079272654450   10.51435906075158
C         6.01544237048671   10.68834070036000    7.28866216088554
P         4.47247769050374    8.57226051042418    6.95141906712030
C         7.04288075298019   11.59199371229691    7.39400715964404
H         7.73883895904409   11.85790510442577    6.62322036872624
P         2.22982618267444    8.25961495318905    9.48586564106196
C         7.00456864416420   12.10847025104611    8.70653249700245
H         7.66217457163141   12.84621446471097    9.12199118466453
C         5.34756638990039   11.69098203784988   10.69935890112657
H         5.30672964035244   12.74647908017464   10.98350075060870
H         5.89318416089495   11.14061959103125   11.47282850342420
H         1.28244630304503    8.76881938873143   10.37556402676209
C         2.88202364568754   11.98807925644570   13.02762534587826
H         2.61177225988320   11.75529934092810   14.05596217089055
H         2.10584375967128   12.62911387529135   12.61881386594202
H         3.82021672388335   12.53845450635951   13.04698399310726
C         3.94872854753780    9.71865846841265   12.98288295893725
H         4.88170578147024   10.20400486071762   13.25966538741267
H         4.17567812842021    8.84456442511063   12.37498798309301
H         3.46891692105492    9.37728928812849   13.89780372860847
C         1.15263361604627   11.93076615818704    9.80176501835490
H         0.76422202063859   11.69095445732017   10.78911925404360
H         1.05007590456468   11.05209353087821    9.16065823952236
H         0.54015535452533   12.72697284272536    9.38320942317965
C         3.09354874461328   12.73665397411510    8.44830230745556
H         2.44471972272399   13.49788441731625    8.01970141150866
H         3.06516687764416   11.85442522292048    7.79832942857327
H         4.11101754869846   13.12061085668366    8.46043561668293
C         3.02863502200942   10.68743575167393   12.24261603920766
H         2.04482090984379   10.21257440000774   12.13794768481123
C         2.61553484847476   12.36556994968731    9.84914969773358
H         2.73415092741852   13.22817311643372   10.51442355450368
C         5.47683472657723    9.89068594069488    6.14745299468255
H         6.26232165683286    9.46634858944006    5.51692865935787
H         4.82958774765114   10.51414244891400    5.52049668265679
C         5.63511126335462    7.12639612709082    6.87788989996223
H         5.92753527682061    7.04410645347874    5.82329554850187
C         3.09581874219282    8.19285240735703    5.76151369673551
H         2.56334866677537    7.32561638430075    6.16908724695852
C         4.96808991841903    5.82933254424217    7.31876651362251
H         5.68139826815987    5.00949654310478    7.26020004812465
H         4.12050256748621    5.58489595101584    6.68175930509833
H         4.62694932237187    5.90521933053016    8.35023606283173
C         6.87879897834449    7.42438447566816    7.71097833307283
H         6.62551008776770    7.52042125845135    8.76492386384818
H         7.36016276738510    8.34733044277869    7.39450184514814
H         7.59659291296300    6.61308757546236    7.60913738146670
C         3.58352909026303    7.86804738748849    4.35458040416106
H         4.16319911578857    6.94874962525937    4.33460102532908
H         4.19166874602529    8.67460939347923    3.95114339140773
H         2.72556702185079    7.73487165791812    3.69827256757757
C         2.14236895077590    9.38716828495067    5.76616905099323
H         1.94677062137851    9.71430084527314    6.79348718624608
H         1.19217109676459    9.12167206589994    5.30837753305246
H         2.56209400925167   10.22522399134877    5.21350164182010
N         5.35859779436472   10.61638970904476    8.48806588815540
C        -0.12224192023847    7.95822929700556    8.05449848882668
H        -0.32684436172951    8.97262687547242    8.37110451414896
C        -1.02870941745285    7.28475017460551    7.25726207809546
H        -1.93998561156540    7.77377754760816    6.94885238941754
C        -0.76964081493427    5.98233455313457    6.86016918538596
H        -1.47864528206668    5.45672346909048    6.23977764508876
C         0.39617955665495    5.35240919629186    7.26526139084909
H         0.59485467997585    4.33517043501082    6.96362743428062
C         1.30919260796988    6.02302909104411    8.05956157764041
H         2.21463646978967    5.52845871486574    8.38125326989053
C         1.05085418033690    7.32904472167449    8.46324381121491
C         2.99858252700319    7.01168530119180   10.55188651121111
C         2.26521434387731    6.03744753425763   11.22138102869721
H         1.19045924436887    6.00201966203047   11.11259297163397
C         2.92301085831369    5.11779182063414   12.01800948219190
H         2.35825902612528    4.35989874237932   12.53888880580478
C         4.30316231672237    5.16512423117285   12.15020301006127
H         4.80793670918054    4.44138827760911   12.77092816898570
C         5.03724790080583    6.13911019017568   11.49156415504716
H         6.11052618064537    6.17777322409573   11.60056312102534
C         4.38319058588696    7.06172391007754   10.69572094967262
H         4.93718147501716    7.84937115808898   10.17366433368631

