68
CSD_code = QEDBUZ | q = 0 | S = 0 | Stoichiometry = C21H42NNiP3 | MND = 4
Ni        2.20560380984197    3.22381602217467    3.75023740222869
C         1.03648825418603    0.62821970031740    5.17506708125257
H         0.15354261796545   -0.01426856099967    5.12368503484829
H         1.83688520739453    0.05184862718317    5.65446079025601
P         1.59887252730601    1.13498169863841    3.48452859096067
P         2.64019703446710    5.19442811524734    4.53808302090380
C         1.43719314007686    5.44182569910614    5.91661185939538
H         1.90518787598951    5.95307781522961    6.76469096763320
H         0.60122854752847    6.05559963966139    5.56186686733358
C         0.28283788544485    3.55223583348083    7.33921986879405
H        -0.08994849470451    4.10431047315827    8.18252693913719
C         0.78063365872872    1.89638559657917    5.92139914399506
P         2.43449090976111    2.79069335151688    0.53708007156547
C         0.97809881601969    4.06119857946034    6.26661032264330
C         0.15518341978731    2.16524539224527    7.11750285449087
H        -0.33404089979012    1.45583900720876    7.75944700844360
N         1.27772702603544    3.05163708343209    5.40206707457971
C         0.04244030016251    1.07725361844718    2.46988651525666
H         0.37585753441075    1.24060845266857    1.43772335499985
C         2.59665122307559   -0.36464265402765    3.00606407780380
H         2.06538276180219   -1.22863134656975    3.42901753451628
C        -0.79678065191776    2.27803344833600    2.90239341418985
H        -0.16454171376382    3.17575371347023    2.92863566683810
H        -1.20277645868507    2.12699088212678    3.90174492427467
H        -1.62148301293420    2.45092467121479    2.21252786988678
C        -0.75367897662922   -0.22024807038781    2.54160382725424
H        -1.55785029568202   -0.19178026980871    1.80752686831420
H        -1.20850420371942   -0.35177630425910    3.52116813531072
H        -0.13120801949044   -1.08619875398493    2.32835983875835
C         2.76185029422188   -0.55655631445509    1.50541074339757
H         1.80285659132788   -0.66870652448472    1.00682570903970
H         3.35642680542641   -1.44891121889558    1.31145244030151
H         3.27122208438728    0.29991811361679    1.06879990271842
C         4.27034187112305    5.15052200291196    5.43268614800864
H         4.29258196095175    5.96482584981050    6.16753016547154
C         4.34232852692531    3.80615449779789    6.15287963155684
H         4.18360918246682    2.99808375457373    5.42813016053814
H         3.57264951626324    3.72940269683052    6.91849294625796
H         5.31569667395216    3.66686289819081    6.62165001615012
C         5.43851071151174    5.29380546167628    4.46246037372066
H         5.38132106350223    4.52109379780776    3.69801944611309
H         6.38220046441880    5.17907705580379    4.99441325020144
H         5.44150790145496    6.26728187326949    3.97687124821343
C         2.63728479114540    6.81687602206778    3.62395898095529
H         3.43681052999458    6.74571065392237    2.87683301598205
C         2.89451568546811    8.02263330654088    4.51988216896543
H         2.85087258346864    8.93626382493494    3.92800411493767
H         3.87505384717934    7.97057373989478    4.98717927541529
H         2.14091001115954    8.09220171998694    5.30121098120268
C         1.30574033997068    6.93917450489524    2.88690765426503
H         1.34672587958137    7.72921063832595    2.13873934883993
H         0.49791022272226    7.17129061912634    3.57811356784904
H         1.07000445684448    5.99814765754478    2.38991731170724
C         3.96385846316952   -0.24010900167794    3.67597115954369
H         4.55086204307549   -1.14496100393282    3.52583831459824
H         3.86836794703806   -0.06724597237539    4.74728120782721
H         4.50879645004439    0.59902923531212    3.24665055255179
C         3.21473161222974    3.42652950704407    2.08229315346469
H         3.55635962372473    4.45222836074511    1.86897218037236
H         4.11451743276856    2.79971327359943    2.23060875051366
C         1.32236086005997    4.21196182893419    0.12315233007955
H         0.92353953024204    4.06832748878274   -0.88006657106891
H         1.86381964445448    5.15685239027112    0.16591653105680
H         0.49157511982365    4.23118975744797    0.82548606314681
C         3.79230293378860    3.21765167009472   -0.66316242056840
H         3.42580356336741    3.08006753306850   -1.67860511973623
H         4.63326301888735    2.54402789158722   -0.50732146596722
H         4.12661993918144    4.24733894857040   -0.53582019346460

