69
CSD_code = QEDBEJ | q = 1 | S = 0 | Stoichiometry = C21H43NNiP3(1+) | MND = 4
Ni        2.74931405087619    2.70303895140653    5.33433104883990
C         4.70585009864041    3.85485698792142    3.06937634471123
H         5.52386112610810    3.12661645088688    3.07021944725141
H         4.79319389578915    4.47685539216850    2.17736947930792
P         3.10810587530199    2.96085762937630    3.14988457391742
P         2.79928645092050    3.03619299329010    7.53227192321908
C         3.39276478428983    4.76735963498938    7.70148153271287
H         2.53460343438490    5.43547492847862    7.82966078256081
H         4.04932059435830    4.87241451882799    8.57007438311636
P         1.39929700377310    0.95714172730323    5.20054781128704
C         4.69983255230013    4.64329558103003    4.33382988583775
N         3.91783167114512    4.19639820723749    5.36695475112981
C         5.37052531382832    5.77298394084206    4.72858053135402
H         6.05270899185191    6.34781381902480    4.13403477702577
C         4.99230841158919    6.02986433833941    6.06254092237988
H         5.33593122086379    6.83437225840063    6.68202582319167
C         4.10535724480461    5.04662578635084    6.42366926796416
C         3.22383197058647    1.65757969975789    1.82110840941418
H         2.31636127539897    1.04668111752896    1.90009357993806
C         1.78711997790475    4.17480190651840    2.61662062546477
H         1.05364125910309    3.58240797086012    2.05415550668118
C         4.44266303406320    0.78074209356747    2.11533048156462
H         4.34875022590883   -0.18475036960993    1.62245455480200
H         4.56045668107901    0.61354941540666    3.18766801562618
H         5.34941713877530    1.25203337644126    1.74411850542239
C         3.29391147545942    2.23319533667807    0.41145605590497
H         3.42076107566085    1.41904658141474   -0.30006110460784
H         4.14351371314606    2.90335717414424    0.30392395130504
H         2.38355635696234    2.76567043942974    0.14806416445011
C         1.11286256297637    4.74061738252782    3.87037599941742
H         1.75122862757590    5.49336397945192    4.33055978919418
H         0.91811471242152    3.94832515896203    4.61147023408144
H         0.16418193397822    5.20998394338637    3.61781922732546
C         2.28835002632381    5.31961831262671    1.74305754928101
H         2.78174907053734    4.96740660543847    0.84147756425805
H         2.97559562033673    5.95217498997236    2.30045856311209
H         1.44079829296259    5.93303508343898    1.44238222056255
C         0.21479061539765    3.72394751708774    8.19255110305070
H         0.39160885388874    4.79358540011025    8.27706486041523
H        -0.69428426845383    3.49361066482081    8.74383609683902
H         0.05185560843964    3.49188526529734    7.13807556943413
C         4.19377574031668    2.01928924195772    8.22278609305254
H         4.54448456878599    2.50004632843346    9.14293680203071
C         1.39570030217285    2.92873616230947    8.74772282220913
H         1.10968929688211    1.87546840986745    8.81689526112195
C         0.40670017518465    0.33504415878921    6.61199069449483
H        -0.24750500299554    1.11677547699930    6.98937024105127
H         1.05129782171641   -0.01331526480528    7.41458972349823
H        -0.20506280717026   -0.49703331798809    6.26517766503535
C         3.74990911428712    0.59172454553166    8.52227913483532
H         3.37657249375530    0.11893212198076    7.61371835425904
H         2.97547640846327    0.55984369097697    9.28519972641510
H         4.59613140198924    0.00943928326842    8.88176185819291
C         5.31285508684330    2.02005245202359    7.18273624743790
H         4.91618871450924    1.68620989886392    6.21174146896686
H         6.11182609908941    1.34281837878566    7.47735587926279
H         5.73494429590855    3.01476795735692    7.05621196499678
C         1.79726422049076    3.41689262441218   10.13544835937022
H         2.08883067556951    4.46375729318482   10.11853516158484
H         2.61783302871611    2.83147241723477   10.54309198365254
H         0.94878080983736    3.31883933989675   10.81011405827893
C         2.18877989741101   -0.60906467382179    4.66766220573874
H         1.45702961886804   -1.41423801894973    4.71356648584433
H         3.02355999822180   -0.85106929823618    5.32285609153890
H         2.56159834350754   -0.52109207684503    3.65169363266885
C         0.04244340931473    1.12639785302022    3.97612663352137
H         0.42243699798854    1.45634739349786    3.01275117268424
H        -0.67837707360605    1.85996736027070    4.33307528089834
H        -0.45929219736165    0.16725807086529    3.85699018858968

