49
CSD_code = QEDFOU | q = 0 | S = 0 | Stoichiometry = C22H20Cl2N4Ni | MND = 4
Ni        2.69356026275173    7.59610636782314    0.10710402939980
Cl        3.51807972628242    9.43406468001850   -0.49923945874314
Cl        1.70339830454118    7.13557168627898   -1.69107332783709
C         5.66669272406798    6.79735172424230    1.22157788890277
C         5.77654192134895    5.33986368910965    1.60967159302777
C         4.97274681303247    4.32445922349106    1.08358617147369
C         5.16068542023613    3.01987750257525    1.53313510276525
C         6.10525531429668    2.70842443201760    2.49146260075675
C         6.90109387048680    3.71322217900757    3.01172442634315
C         6.73588000962821    5.00911766878093    2.56342645610791
C         1.68556770020131    9.11683098380313    2.82462371918165
N         4.76264497107041    7.51193967180226    2.09579952164466
C         3.52210954614759    7.88728015351368    1.74188202608171
N         3.00901817703034    8.53363481357885    2.80204294246524
C         3.92875062353588    8.57399121337758    3.81638105569699
C         5.03280183540944    7.93074143207258    3.37177912789895
C        -0.09442140799494    6.86777592476689    1.65636846658397
C        -0.07792543786632    7.26697968264334    3.11483869782977
C         0.72576195830745    8.28182958940444    3.64221972759348
C         0.66204299200720    8.54577538764587    5.00811130769207
C        -0.15860397418743    7.82355837653522    5.85225450607258
C        -0.95408802723454    6.81935974901560    5.33027730633637
C        -0.91267238763864    6.55768803886213    3.97475300096100
C         3.88656911717525    4.54759029325843    0.05534696607985
N         0.85061160046810    5.80637887349722    1.38686583931479
C         2.02376173805257    5.99335545306415    0.75938318932902
N         2.60436375758324    4.78431376339087    0.68145485573698
C         1.79324171349486    3.83758328936631    1.24917158203590
C         0.68912459511476    4.48109082321893    1.69325303479186
H         5.28862400908220    6.93298963634376    0.20103313096393
H         6.65378872246086    7.26475269990882    1.28496024517298
H         4.55587681651002    2.22898878931148    1.11319980568946
H         6.22564233332144    1.68800029442811    2.82201764519355
H         7.65156466602533    3.48828236648554    3.75416073860046
H         7.37393414610329    5.78760429945662    2.95650678724516
H         1.36944077733473    9.21729693581843    1.77924629923649
H         1.75453377423573   10.11883840051045    3.25830064833969
H         3.73619480920004    9.05541624784402    4.75245324021672
H         5.97239386522864    7.75244069337326    3.85189581390952
H         0.16907458332853    7.69834744849492    0.99035489316660
H        -1.09564054075558    6.51869398242978    1.38716228380132
H         1.26584742448060    9.34366724574861    5.41613491901228
H        -0.18412507881308    8.04959147587133    6.90737698500845
H        -1.60957371426228    6.25066712426168    5.97209861839846
H        -1.55151916025458    5.78724237667490    3.56733859244840
H         3.80411349125216    3.66270856211811   -0.58266498715596
H         4.08693582411816    5.41452708475768   -0.58589623972761
H         2.05258561107656    2.79999976900208    1.28402636473363
H        -0.18368581702192    4.10318790099750    2.18361186022231

