41
CSD_code = QEDGIP | q = 0 | S = 0 | Stoichiometry = C16H18Br2N4Pd | MND = 4
Pd        2.42766806909436   11.16373550416293    3.96429641126764
Br        1.65997817970949    9.20082404156318    2.77198437238064
Br        2.10570958337808   12.69195705249813    2.11305124483266
C         0.47610483524554    9.79386035816481    6.36510000224244
C         5.08724283921703    9.39443537390298    4.85443443656076
N         1.85924434592404    9.40190280123549    6.32651041291331
C         2.75589196377847    9.90176694450456    5.46324412800236
N         3.89657568537256    9.21905283748471    5.66024399886908
C         3.71788229103918    8.29316823230763    6.65615401284225
C         2.43621827060358    8.40780387615634    7.07425882638945
C         5.47487967447455   12.43568371802948    4.28448067095447
C         6.27812035991078   11.63925090049140    5.29050421042724
C         6.10434559899260   10.27694913934307    5.54595897980408
C         6.90628857191049    9.66766232032234    6.50876748530128
C         7.85240541330184   10.37516201025531    7.22302329750694
C         8.02484477873021   11.72451405799141    6.96968917977891
C         7.24723522754457   12.33762141645926    6.00776109734568
C         0.97554716086035   13.73160195158394    5.61951382389529
N         4.39900618316131   13.16878360360504    4.91932433834244
C         3.11902355054736   12.75935181048512    4.92461305301539
N         2.40948978029962   13.73574595992056    5.50976095068268
C         3.24311409800575   14.75929122070446    5.88084750588177
C         4.49461445121419   14.40269171190833    5.51053541544214
H        -0.16129340552118    8.90976057271503    6.37584621476879
H         0.25785767528071   10.37216374137841    5.45408594846423
H         0.26441994027316   10.40306939659887    7.24727894043756
H         4.76228215555354    9.79875813753455    3.88157026132972
H         5.52741729729511    8.40841656785746    4.67838058821411
H         4.49170220526167    7.62588691597717    6.97328362464750
H         1.89537535202890    7.86383408454562    7.82073381045238
H         5.01892517529837   11.80310183707666    3.50511234657699
H         6.13225662822325   13.15692075996212    3.78983646797225
H         6.78901808597950    8.60997624742236    6.69453874800140
H         8.45741108323512    9.87518456123177    7.96373529586866
H         8.76666548158796   12.29277729255328    7.50954385441883
H         7.39925429877479   13.38639551087882    5.79809126652729
H         0.58288945208464   12.94385527980176    4.95839713861718
H         0.66012980307236   13.53958841757271    6.64796470503927
H         0.57454056892171   14.69073048971530    5.29248977168376
H         2.88401741472270   15.64734136870877    6.35838262918652
H         5.42069987561203   14.92992197538787    5.60557053311544

