24
CSD_code = QEDJUE | q = -1 | S = 0 | Stoichiometry = C3H6CuNO10P3(1-) | MND = 5
Cu        1.51662932405126    1.78230223417063    2.20986441117341
P         3.27407304396240    0.67635588118898    0.25411546402532
P         2.78704471709470   -0.05781735832966    3.08901917883697
P         1.88311080083106    3.98145840243103    1.80713584097542
N         4.39466367935375    2.26188497912554    2.25884204685225
O         1.86307196597339    1.38145742790956    0.39130981539453
O         3.47103456647982   -0.41990292814706    1.30323864895183
O         3.56715838148764    0.33834605019530   -1.13703540164074
O         1.44674349263371    0.17993942538781    2.46867399249884
O         2.21036351131088    0.92493035774176    4.57903430711445
O         3.16026901220894   -1.31927826956981    3.70610852436265
O         0.64817037723108    3.17905179440796    1.85088145862832
O         2.27304787769512    4.72503995184492    3.01320741748604
O         2.61188580324486    4.14827257702944    0.54819757710920
O         1.77681645257186    2.11198015036312    4.06691948289171
C         4.52384136611161    1.98017991152987    0.86504908671289
H         5.48076456059866    1.48511414320907    0.67439801074265
H         4.43717864785479    2.88173588761121    0.26041798663557
C         4.31988738478016    1.13053949595498    3.11309596023501
H         4.43283500868085    1.42101864118272    4.15856293560232
H         5.08884385792848    0.40218849473713    2.84980578987592
C         4.36723080442713    3.46497836247842    2.71666443359460
H         4.48546715699914    4.30316846952642    2.05185506946409
H         4.26006820648885    3.63795591802061    3.77613796247671

