79
CSD_code = QEDMOB | q = 0 | S = 0 | Stoichiometry = C36H34MoN4O4 | MND = 6
Mo        3.42508341176953    3.97745390195346   -0.12784280390376
O         1.64656591848609    5.41111111517247    1.96648261575343
O         3.20999592366894    6.50755086655948   -1.88881962175617
O         5.74369197389695    5.12508635549326    1.56015037725643
O         5.56436387852922    3.08679848724411   -2.18607688507472
N         3.33464105293010    2.11510189568822    0.84314878147550
N         2.44577125400474   -0.08926158018290    0.81231290317589
H         3.13915737061505   -0.26014688212701    1.53737232827969
N         0.43206596914759    1.01937023500769   -0.95234462584763
H        -0.11207188298308    1.52385672123535   -1.64770932986716
N         1.85149222535447    2.91958472972481   -1.04764249844415
C         2.24302570283614    4.81558636980339    1.19189596840333
C         3.31244383390224    5.58131262051290   -1.21760831333092
C         4.88077862185465    4.72659905293830    0.91569885235316
C         4.73806546238475    3.33556347085605   -1.43400166174192
C         2.47670573926866    1.24077803319850    0.41678257053554
C         1.55590816033718    1.74272602231147   -0.58828427249921
C         4.23973637608221    1.79494826739102    1.85768021158487
C         5.61042938708856    1.81459247334569    1.60635327050749
H         5.96143482514713    2.04869582225787    0.61098663850486
C         6.50209744365576    1.53330353491823    2.62021034141569
H         7.56227484837714    1.55132723862308    2.41367656666908
C         6.06226062330535    1.23582928803144    3.90731355954523
C         4.69592325301385    1.21722257165244    4.14987861314352
H         4.33157582481589    0.99401096958694    5.14251910092789
C         3.78909972116499    1.48035187145023    3.13888295795409
H         2.72573851012596    1.48682905892653    3.33888594517731
C         7.04831163490512    0.97165292890573    5.00335045427838
H         7.87051801631694    0.35592129590998    4.64406797521261
H         7.46792656908092    1.91323858128167    5.35782254582310
H         6.57363087789268    0.47279103121729    5.84476077381359
C         1.09203974758436    3.50650695808690   -2.06254531851988
C         0.41602586311524    4.70304671191203   -1.82835476205254
H         0.46360840127998    5.15184634733363   -0.84570965523739
C        -0.30004702085767    5.30279339215411   -2.84320215246671
H        -0.81902494988175    6.23023666039196   -2.64949974908439
C        -0.35810054029810    4.74109404296961   -4.11592082021318
C         0.31515339214536    3.54884598843738   -4.34194236734994
H         0.28860234891021    3.09683035401714   -5.32318379943574
C         1.02271536171401    2.92733472940141   -3.32881212658646
H         1.56477395942267    2.01085931660278   -3.51998436394796
C        -1.10602280497112    5.42961129880169   -5.21572859155963
H        -1.31344732320715    4.74593996269937   -6.03535334460979
H        -2.04535850024200    5.83825029800765   -4.84852917587347
H        -0.51227404427564    6.25719794307630   -5.60426843842987
C        -0.42004589103526    0.52193421587543    0.13819962778252
H         0.05285952335596   -0.37179157421574    0.55724130309516
C        -1.78190896786944    0.14281069261690   -0.43251917776637
H        -1.66557104462261   -0.59087991897357   -1.22706866652084
H        -2.40176091338669   -0.28435899300980    0.35144738422187
H        -2.29119176129712    1.01686140565960   -0.83383249926775
C        -0.52592100150887    1.56359961976820    1.23171149526588
C        -0.11403050676325    1.26908091781946    2.52392305983975
H         0.24096750708557    0.27377335522461    2.75326195738259
C        -0.15001038203726    2.23824290579677    3.51150651580043
H         0.17563501402029    1.99814693502125    4.51354596855339
C        -0.59685005238799    3.51423530003436    3.21640951227713
H        -0.61518470560396    4.27394125909080    3.98264451277271
C        -1.01174502774464    3.81566315939649    1.93053588830861
H        -1.35953541464672    4.81012583117194    1.69406464746596
C        -0.97338714351980    2.84778210288021    0.94350697513280
H        -1.29334723778517    3.09969478165780   -0.05908788897372
C         2.57078168085041   -1.08026513716342   -0.26814149666537
H         1.65314929555844   -1.03992829969254   -0.86308935616530
C         3.73467765177218   -0.70729162601623   -1.16249992571599
C         3.50482865411487   -0.32130328926298   -2.47646808061173
H         2.49718214309778   -0.35472882940638   -2.86849994055609
C         4.54900929773001    0.09760403518881   -3.28170043371060
H         4.35625526212605    0.39967771622958   -4.30060656559952
C         5.83791810131711    0.13940041770229   -2.77908716733752
H         6.65209995644540    0.47520483882676   -3.40259043346548
C         6.07556354766146   -0.23763009940701   -1.46880035050473
H         7.07731445530353   -0.19962951844228   -1.06692697021905
C         5.03061628546793   -0.65460729080052   -0.66409444935752
H         5.23207635517935   -0.93337535646579    0.36156787800249
C         2.71009688916756   -2.46840025280701    0.34441055645317
H         1.85535240060889   -2.68479734276969    0.98094372840373
H         2.75868770928614   -3.21419206250187   -0.44459752527945
H         3.61543190202524   -2.54158025223808    0.94272124256957

