93
CSD_code = QEDNIW | q = 0 | S = 0 | Stoichiometry = C24H56N2O2OsP4S4 | MND = 6
Os        3.57398224181156    4.85474443876292    6.99340867755938
S         2.49180265991642    5.58872920994549    9.19478870245567
S         3.10467428526147    2.34221462756027    7.06342462651044
P         0.99193362914660    4.23333646829574    9.42634510503306
P         2.77960430728636    2.01491968235559    9.04638570239550
O         4.95629633917597    4.61794921872606    7.77494076922794
N         1.46991778142797    2.70820700608943    9.69653519733210
C         0.00570448889875    4.72803720488304   10.92384534643244
C        -0.51571570700954    3.48095615297221   11.62482240299777
C         0.82711096273187    5.58485503052478   11.87847806227806
C        -0.14761226426870    4.28716450327829    7.95316901389987
C        -1.34980813398376    3.37941763190858    8.16994016065619
C        -0.54231845433007    5.71947841074225    7.62355040355041
C         2.44808213753209    0.20050134564077    9.17650361137971
C         2.22129566801370   -0.19691930549729   10.62793638042681
C         1.22375918363104   -0.11392833864611    8.32629059669864
C         4.34274884626444    2.48122768637722    9.95445188553695
C         4.10254266326446    2.72794717494270   11.43491365490381
C         5.43362018252089    1.45611271272003    9.67499042031117
H        -0.83588007879526    5.32174750640079   10.54965893037594
H        -1.13546298104690    3.76558979096064   12.47374084042629
H        -1.10540031662344    2.86373424957881   10.95326188135874
H         0.31876180111384    2.88561973795657   11.98594641944747
H         0.21364152917936    5.88591573644561   12.72635299330733
H         1.68137785188843    5.02514763891403   12.25274219339584
H         1.19945390359894    6.47491618757423   11.37738396094047
H         0.46096760401713    3.88671992300745    7.12846714001070
H        -1.89593794496613    3.26149543037296    7.23558791143077
H        -1.02424487679413    2.39568450796485    8.50266041625729
H        -2.02783432340578    3.80058771856450    8.91038653345557
H        -1.19802947004860    5.72948036893215    6.75459364442734
H        -1.06098864819534    6.19372192305147    8.45582127122416
H         0.34641346749313    6.30242862951181    7.38656120644931
H         3.32051126845561   -0.31446345329787    8.76186577627172
H         1.84919117516892   -1.21922307411772   10.67877400530348
H         3.13964752920682   -0.14305699152987   11.20703839508690
H         1.48254032135886    0.46394808063848   11.07575002029968
H         1.02962267167862   -1.18502857304219    8.32447111805930
H         0.35427584262743    0.39739593517678    8.73335045449923
H         1.37788314293391    0.21791386476867    7.30162246889777
H         4.63393898466480    3.43538228803733    9.48694401421789
H         4.98596078283072    3.18287631479790   11.87923039646765
H         3.26452208967286    3.41103881525699   11.56363663481863
H         3.88412473449227    1.80441590542795   11.96606461723413
H         6.39375791850804    1.83569187324521   10.02000404856481
H         5.23392863334306    0.51468145067480   10.18434806664394
H         5.50543388831103    1.26979510237364    8.60375218732815
S         4.65612273704961    4.12195010446487    4.79177728372078
P         6.15595209128885    5.47692773450686    4.56048634547297
N         5.67781846538974    7.00197712268463    4.29029266675629
P         4.36804439576569    7.69510717533528    4.94049347913990
S         4.04244979266066    7.36879035525334    6.92386071842284
O         2.19141901615524    5.09198547854225    6.21242731328957
C         4.69937599668811    9.50958158423283    4.81031709543121
C         4.92627482294585    9.90684316566275    3.35885045626244
H         5.29860544056758   10.92906373360017    3.30797544874884
H         4.00793579634960    9.85318286678297    2.77970838123752
H         5.66490859342445    9.24581879636924    2.91106417809303
C         5.92362720280913    9.82422681624810    5.66055583849703
H         6.11764955108412   10.89535284408583    5.66227243637928
H         6.79319324840636    9.31296646967101    5.25359333918496
H         5.76949105765974    9.49246670060689    6.68524687778672
H         3.82688635267695   10.02458129299166    5.22480388762197
C         2.80490020345268    7.22876048908071    4.03249223238410
C         3.04500483868562    6.98238482772659    2.55196250128643
H         2.16175957273679    6.52700731887056    2.10775996915331
H         3.88338835061565    6.29977490880369    2.42301252943355
H         3.26279875235478    7.90609897114950    2.02086822557891
C         1.71382237873969    8.25359385534434    4.31224776801441
H         0.75370300435435    7.87393503338044    3.96727023849904
H         1.91329233512929    9.19517949555250    3.80308544221253
H         1.64210138890518    8.43966556454230    5.38353794978490
H         2.51394155659993    6.27443911431425    4.49980748082367
C         7.14195194502875    4.98202318040609    3.06292416695470
C         7.66209359033093    6.22925307713593    2.36129915434115
H         8.28252723351217    5.94467708213298    1.51287550256805
H         8.25076384856742    6.84765694302933    3.03266756635103
H         6.82707212061355    6.82333701170868    1.99937112888840
C         6.32095055784724    4.12395219030137    2.10907546171466
H         6.93429985234740    3.82325658225618    1.26098599413860
H         5.46586105751702    4.68258671322996    1.73509315710975
H         5.94983687416377    3.23368529068335    2.61072108891046
H         7.98412352180588    4.38926662882317    3.43728501935342
C         7.29536675564192    5.42299418607526    6.03374062031990
C         8.49758331015348    6.33056871040677    5.81641746603744
H         9.04411647071375    6.44823735787563    6.75055324171709
H         8.17203650534508    7.31440796317665    5.48399802455184
H         9.17522778800292    5.90943416856665    5.07560087885959
C         7.68992919396884    3.99062757024477    6.36328945544557
H         8.34613009251057    3.98057345521947    7.23187697095133
H         8.20799204449456    3.51613582342272    5.53077280968571
H         6.80116970477126    3.40794415352061    6.60082418454052
H         6.68700327218482    5.82361234274557    6.85851975854690

