78
CSD_code = QEDPIY | q = 0 | S = 0 | Stoichiometry = C23H44N2O8Pt | MND = 6
Pt        4.76004731762750    1.69790414180685    2.93202181503184
O         6.23362252517880    2.82232603457991    3.77228623509247
O         6.05861490221130    0.19093053414218    3.37406208623721
O         5.72198807270558    1.99888318494265    1.13118895923839
O         3.97376181722686    1.38301450570049    4.79929102096066
O         4.67825335932186    4.13734831197461    4.64477254832026
O         5.39126603564769   -0.86404075798426    1.54463112340082
O         5.45709743145181    4.20941570772405    1.11858269000501
O         3.34077226929023   -0.71578615904154    4.43265488186376
N         3.22851507142856    0.54875770339012    2.06950076154524
H         3.56146496701438    0.18883798894948    1.17212744168627
H         3.14778431224759   -0.24961251081253    2.73095441905514
N         3.39418911090359    3.23637880080088    2.50715333199868
H         3.03196765159528    3.59383546424825    3.39447670824721
H         4.00002952758359    3.96707552407384    2.08255677305419
C         1.99270130954307    1.32799785680428    1.98776469534068
H         1.55448714958157    1.35603469769937    2.99402183705635
C         2.36622728377489    2.76152597370883    1.58103181803547
H         2.81424887573560    2.73244520114576    0.57911701399903
C         1.12202045864820    3.64836738272498    1.55438311372380
H         1.39477081085193    4.65985702552149    1.25061306089000
H         0.69278953796425    3.69799292649606    2.55740056317009
C         0.09669189235655    3.06471743379434    0.58321406112692
H        -0.80075847871451    3.68420254993771    0.58285903890648
H         0.51005656198389    3.07551469096237   -0.42706334960221
C        -0.26663954757851    1.63229230860597    0.96769999597898
H        -0.98144868280325    1.22897116341612    0.24968908516090
H        -0.74284662949001    1.62985950214211    1.94999520547973
C         0.97643315236649    0.74444978860836    1.00708588540397
H         0.70670066847462   -0.26774256182103    1.31137145879906
H         1.42379291692935    0.69327379931431    0.01207447379443
C         5.84188616794350    3.79926163483441    4.49652323190292
C         7.00520826105149    4.53270152560818    5.19741682209971
C         6.48352834153857    5.81177332709230    5.84548769903826
H         5.67167564768843    5.58305372972369    6.53068898254745
H         6.10374183415436    6.49165048306216    5.08714514294228
H         7.28363235736847    6.30474101589821    6.39342475437257
C         8.08002701800766    4.85210936951686    4.15748340894997
H         8.44420411929900    3.93395092224831    3.70429721350006
H         8.91274853980985    5.37204445234681    4.62769071780962
H         7.67028345174573    5.48356075102108    3.37193114128995
C         7.55512010000930    3.57433960052493    6.25819231262632
H         6.79280563972094    3.35646413938691    7.00360765809514
H         8.41237705781622    4.02193740143225    6.75803525488930
H         7.86402911103350    2.64135255411953    5.79276480344107
C         6.08706619912779   -0.77795389925512    2.54526801234649
C         7.04199103338679   -1.92271671667621    2.94563491976018
C         7.76316508736550   -2.41538769985416    1.69203332242363
H         8.32670416906774   -3.31913567517739    1.91476518388180
H         8.44963972230491   -1.65544639926219    1.32584365202061
H         7.03964176293834   -2.63015704099549    0.90998742189492
C         6.13161916011535   -3.02205459636798    3.50522034145860
H         6.72989344919496   -3.85800221625593    3.86294538755852
H         5.45526179132590   -3.37638229311998    2.73119760372126
H         5.53360571230582   -2.63727341118264    4.32853991340627
C         8.04288810250764   -1.46555367807794    4.00253878962729
H         8.70947155903241   -2.28652831555733    4.26138906055309
H         7.52626442167612   -1.13328008087777    4.89872166336463
H         8.63654532799076   -0.63505390102578    3.62876139541386
C         3.64486028318190    0.21092003365907    5.17841614501139
C         3.66336866199390    0.03387424704821    6.70865396958081
C         5.14579937603862   -0.13702951192045    7.06290571704296
H         5.71658806699817    0.71369427097086    6.69731925508175
H         5.54239419162154   -1.04131210121035    6.60570907222538
H         5.26653339779196   -0.21023098595513    8.14222901055853
C         2.87024930758043   -1.20835410777996    7.10445708775996
H         2.97209523564760   -1.38992987430991    8.17198068259937
H         3.23321925284066   -2.07661744791854    6.56082118236946
H         1.81586081737869   -1.07988408835931    6.87036330579017
C         3.10068853027630    1.28277095732339    7.38697764027564
H         3.62675188626703    2.16741631393682    7.03804960758662
H         3.21362678063499    1.20238797554629    8.46618980112449
H         2.04308599207941    1.39826287177972    7.15781988666124
C         6.00366335495868    3.17875035692443    0.73469705659723
C         7.08652807611825    3.22492131123969   -0.33083824823442
H         7.14339292788050    2.27021603255423   -0.84393457173903
H         8.03363559507432    3.41625401985305    0.16905284221245
H         6.88583146905609    4.03494652992768   -1.02602400644367

