51
CSD_code = QEDPOE | q = 0 | S = 0 | Stoichiometry = C14H23F3N2O8Pt | MND = 6
Pt       -0.73257151544704    7.03077272799767    9.54958091335191
O        -0.69966509329707    8.45051592047136   11.02425673794464
O         0.72052162273168    8.24142365721806    8.78583384451100
O        -2.19811360678933    8.17625732660620    8.69833136769414
O         0.82170770681846    6.11899228943322   10.59672272363638
O        -1.29286339106170    6.84058736309601   12.41205405173334
O         1.79486872567306    6.48745981452586    7.94377901230773
O        -1.95205372535639    7.49382293656359    6.59240100072405
O        -0.19804239721074    4.22088347450143   11.19352402281878
N        -0.70714372871958    5.59313088269960    8.02774540506154
H        -1.10451945847112    6.10558385100621    7.21157342420717
H         0.28383208231030    5.39176994493986    7.82669172539767
N        -2.28566123659600    5.75430027196907   10.22539887618649
H        -1.82627980647390    5.14583522357501   10.92240304242097
H        -3.03542678166591    6.25392310156703   10.70262737852826
C        -0.89618217014579    7.97900980519568   12.19715285024794
C        -0.59749273872520    8.95519900439380   13.31787314264973
H        -0.63640332642073    9.97378340651704   12.94632211976477
H         0.40616641158345    8.74169456571686   13.68016719357448
H        -1.30283190140885    8.80410060008901   14.12968289531332
C         1.72308929594888    7.67459411545106    8.22770490443122
C         2.85669232423814    8.63601873360072    7.91657770440871
H         2.49032477927860    9.65710883929521    7.90939011221702
H         3.30218403806090    8.37116582180514    6.96217886055570
H         3.60583229837793    8.52647807484351    8.69759865043487
C        -2.38179890790550    8.27230141505986    7.43477075709234
C        -3.25026761518001    9.45286852771204    7.04166935650422
H        -3.90378443384976    9.72918749365669    7.86264838588174
H        -3.81810893963546    9.21011342223201    6.14837702390994
H        -2.58779750475542   10.28780810422122    6.82400777673334
C         0.69813250780303    5.04156880664168   11.22916565002858
C         1.93477099451183    4.77065393310604   12.15508575447618
C        -1.51957147754069    4.42573006701691    8.36586929508091
H        -0.95323539771714    3.78860669114682    9.05516686235206
C        -2.76514066808655    4.93917637532433    9.10319174720131
H        -3.34200909908563    5.58267375028300    8.42586714840819
C        -3.62587199675578    3.76021791852058    9.55484458810876
H        -3.04701269212052    3.14294817605474   10.24405407137958
H        -4.51289730648222    4.11991823333256   10.07896429973279
C        -4.03641642218523    2.93401688268740    8.33651534410974
H        -4.65594828422873    3.54470094986165    7.67658167030305
H        -4.63294977246620    2.08069384476346    8.65985521487248
C        -2.80938828913739    2.44448047715503    7.57207201599489
H        -2.22732016243968    1.77850233255573    8.21106672812286
H        -3.12423787696557    1.87803518274540    6.69530075629533
C        -1.93308159060940    3.61758864728026    7.13633292674329
H        -2.48539328849833    4.26283921513755    6.44974312548979
H        -1.04612553731426    3.25073194970015    6.61877395854185
F         1.73269229967713    3.73082572648782   12.96738685622112
F         2.21594443839374    5.82892109645187   12.92283926635554
F         3.03434861534053    4.50007902778728   11.43717745993473

