45
CSD_code = QEDRAS | q = 0 | S = 0 | Stoichiometry = C16H20CrN2O5S | MND = 6
Cr        0.66766773117687    7.96171525052732    2.11736047939546
S        -0.60093484272313    5.71842235174618    2.76914653576600
N         1.66349963736804    4.32489200882256    3.32353812653869
N         0.78974620372295    5.32237146739609    5.06868808684894
O         3.09446166061312    7.24745211520624    3.74331135066659
O        -0.35150565893300    9.57367403960631    4.44049800092058
O        -1.62764814710648    8.92922283513817    0.42214800314817
O         2.02923179746350    6.85213367480771   -0.32192210257024
O         2.13814570872486   10.47316275297776    1.41460647506017
C         0.66290061201856    5.13265669990493    3.73724617018770
C         2.45468352614781    4.01995721150722    4.41432390601766
C         1.91133556606825    4.64040541261518    5.49963205608051
C         3.67899116405206    3.17938097763219    4.35657069908088
H         3.92735784802014    2.82578275001043    5.35355804800941
H         3.53591632168708    2.31567327753019    3.71375749518195
H         4.52429456635245    3.75655567229215    3.98366603666999
C         2.40628590851797    4.63570421258231    6.90098830071914
H         3.08239484824290    3.79776997612548    7.04726968307215
H         2.95385977797497    5.55211645009176    7.11794292838385
H         1.58831122305814    4.54223660781523    7.60946625656169
C         1.80761154072182    3.93710585455768    1.92868374240196
H         1.09936425653003    4.58612914396342    1.39527665836017
C         3.20885392781092    4.21012124021241    1.39087307867506
H         3.57853457720094    5.16282785710823    1.76367921253626
H         3.90904938294926    3.42528669132819    1.66032177837274
H         3.16564713152840    4.26848798565530    0.30666758435903
C         1.36390210076865    2.49107031028535    1.72022943277711
H         0.34639743394911    2.35984830435060    2.08026997014912
H         1.38793798373377    2.25825501991197    0.65959328355640
H         2.01244109469252    1.79156613746671    2.24131129223814
C        -0.13909345620433    6.15722324445442    5.81512594017985
H        -0.72679154813038    6.66530094647753    5.03806761228605
C         0.57298427649008    7.21691407965047    6.65006766191189
H         1.40610010143056    7.64082736279566    6.09378916598199
H        -0.12522243908098    8.01952291576767    6.87164339936989
H         0.93865615771711    6.81662542054655    7.59083965245263
C        -1.09671935612714    5.29938779756062    6.63884454592142
H        -1.60587622453609    4.58759736393483    5.99354023029427
H        -0.57648310203654    4.75266961754640    7.42116995741949
H        -1.84155878773910    5.93929679900569    7.10314012752795
C         2.13701826796263    7.47336624660460    3.13252334135358
C        -0.03003411714760    8.87707102446751    3.58247117810268
C        -0.80040253179953    8.49130301400431    1.08290112504708
C         1.45197578269246    7.18212360604401    0.61760058346861
C         1.55661209417891    9.51008627195648    1.67537290951021

