31
CSD_code = QEDYUT | q = 1 | S = 0 | Stoichiometry = C12H14AuN2O2(1+) | MND = 4
Au        1.42242038085372    2.58841250296514    0.35590908972620
O         2.35456366723096    1.01825194182829    0.97205427262152
O        -0.10182443275292    2.38976617772908    1.51691457971981
N         0.64550777410809    4.26729732756174   -0.46121063323547
N         2.90253789215917    3.02438041244572   -0.95154857253992
C        -0.50245334203637    4.81869312538992   -0.09900998945432
C        -0.95842154772797    5.99515321989477   -0.67071424354241
C        -0.17984331299747    6.60037392609465   -1.64580812114901
C         1.02597776130746    6.01898533571648   -2.01215934933982
C         1.42773281400019    4.83706780888824   -1.39841564205147
C         2.67829844102013    4.12899720422760   -1.68953989064401
C         3.60377167006843    4.52030056406274   -2.65149522861860
C         4.74983261794082    3.76108942826476   -2.84210321560445
C         4.94732762466236    2.62312923879974   -2.07443731580875
C         3.98843335853364    2.28845901000473   -1.13252854544397
C         2.60377505626194    0.79898457113593    2.32855719862170
C        -0.77812487822493    1.17551462138503    1.65318201610938
H        -1.04104572019771    4.28402670190904    0.67293696679089
H        -1.89741596838601    6.42044328864650   -0.35616714159422
H        -0.50178411360747    7.51697147440484   -2.11584346707748
H         1.64331795135544    6.48463831399586   -2.76235916184758
H         3.43508832643629    5.40131853906815   -3.24822613763247
H         5.47507591823231    4.05581639113572   -3.58498059157684
H         5.82156830139009    2.00522497989191   -2.19861545325338
H         4.05814964929956    1.41467450123944   -0.49740355636684
H         2.97995829982352   -0.22555037248047    2.40448695901576
H         3.36221740953998    1.48948524375148    2.71549063340453
H         1.70331373265532    0.87873845727389    2.94367282438997
H        -1.47299602373043    1.31002586440923    2.48748092190984
H        -1.34572657351903    0.92759718106531    0.74906793552946
H        -0.11163273375617    0.34333301930674    1.89431285888240

