104
CSD_code = QEDZEE | q = 0 | S = 0 | Stoichiometry = C33H58O5SeSi6W | MND = 6
W         8.94784850652824    0.39990034620466   13.07747788141934
Se        8.04980540957581    2.07214325361943   14.92637092326982
Si        5.67493949787700    4.28934611444106   16.49861134260460
Si        7.07051532634294    6.40108302804485   11.55586947911677
Si        4.77407726743732    4.03406655566310   11.46495551361321
Si       10.28291490990193    1.28308526691581   17.82488889317036
Si       12.85086445968201    4.34476608727858   14.34418067155003
Si       11.04656059917460    6.36553164130563   16.22680290173106
O        10.38653923974290    2.72548484603416   11.54016782596025
O         7.43647482770678   -2.00147265122778   14.41815783630669
O        11.49903899711417   -0.38698654099512   14.71565790173866
O         6.30801182138455    0.63770432713466   11.40751303109774
O        10.00461742303010   -1.57517961209977   10.90075382258870
C         9.86466499039792    1.89900150549705   12.13948500399429
C         7.99538750789975   -1.10885110271331   13.97440145032377
C        10.57974828791045   -0.01020941030351   14.15034139556835
C         7.27459578713757    0.63343698630285   12.01972978040395
C         9.61897191043953   -0.84840976934869   11.70062283162744
C         7.18633363627809    3.79087140534950   12.70772587535790
H         7.77307653756488    3.29687275674700   11.95377837117937
C         7.14677311772464    3.50113159304742   14.03080163266741
C         6.22813586170070    4.39236789490158   14.70037619367821
C         5.72492550868709    5.21843112742408   13.74798793749181
H         5.01187335918143    6.00388353964966   13.91512910341851
C         6.25135608924469    4.88611023527788   12.41426966427866
C        10.12012995938890    4.11069627857449   14.81037933181775
H         9.70860487412312    4.57723395785763   13.93574329550453
C         9.63089610366165    3.01927188741292   15.44358301155789
C        10.45435853244506    2.69636099581044   16.58654576174173
C        11.44034685561785    3.62864155564140   16.61944795142236
H        12.22865730073728    3.67235102197926   17.34785332588574
C        11.32226155378926    4.59090858514459   15.51027008243174
C         7.00626584215425    3.67690373692088   17.71926922261157
H         8.00998294439692    3.89795321311583   17.37205150730574
H         6.93887413182925    2.60066679139663   17.84439999173034
H         6.88176256021288    4.13344666140033   18.69694777406638
C         4.20275713036386    3.06916356436971   16.57121574941619
H         4.48672721104279    2.09899856322597   16.17260869516290
H         3.35747704246314    3.42800625052691   15.99197642841244
H         3.86179200768084    2.91973176814951   17.59120647471627
C         5.09695007353087    6.02849747909065   17.03604869333099
H         5.90283826480138    6.75314386952681   16.98168660132057
H         4.73630244502417    6.01348028217468   18.05938371071819
H         4.28621749812327    6.38830827704655   16.41155845349154
C         5.95617377582917    7.93787781566042   11.73296016341690
H         4.96502763543512    7.77989726674215   11.32426754860800
H         6.39392767549737    8.78204118549214   11.20927613788505
H         5.84291840701455    8.22456101039412   12.77348064472171
C         7.43817941350770    6.06794749570569    9.71648042833684
H         6.53393779306892    6.06174951693473    9.11749446456613
H         7.93815048475673    5.11612203090109    9.57149762329356
H         8.08825218692977    6.84011492483193    9.31668074994388
C         8.71307434346538    6.76818175420374   12.45265356966061
H         8.58497931123273    6.75353800544636   13.53097247110432
H         9.09259324802364    7.74798919384299   12.17704599969042
H         9.47573230378221    6.04016064492572   12.19414599048313
C         3.43721921222463    5.33334759104812   11.06441612677692
H         3.16512721301234    5.91991949085156   11.93518190688725
H         2.53810430870605    4.83970754437853   10.71063410567461
H         3.75823889650614    6.01686401367568   10.28570997162475
C         5.37715623988001    3.24956615727349    9.83529943527859
H         5.34097320050962    3.95327937156112    9.01052072666452
H         4.74413979751714    2.40856462398638    9.57095329582166
H         6.39224839474137    2.87493233129193    9.90472441622791
C         4.02169270346429    2.72485814033520   12.62703032275074
H         3.35865814293704    3.17877552148440   13.35693146326253
H         4.79168899132981    2.19359902717269   13.17865030981288
H         3.44940946840984    1.98798953931457   12.07227050703239
C        11.97414304492154    0.40507790980735   17.96309355920781
H        12.75768892898440    1.10604099915126   18.23402998132179
H        12.26353502622620   -0.06576560121182   17.02971679743284
H        11.94933736219094   -0.36751760321635   18.72572627089043
C         9.86381969434944    2.02058900381864   19.53872648445149
H         8.89864492464639    2.51478822510591   19.54725587251827
H        10.60950058577191    2.75131909861403   19.83589602943131
H         9.84474135496468    1.24538023300914   20.29842478292255
C         8.95561277589366   -0.00168209482244   17.35711163816728
H         7.95157420698285    0.40694893925756   17.43501431276442
H         9.00875007153972   -0.86929856704841   18.00840241917551
H         9.09079894210087   -0.35434406109026   16.33621274624247
C        13.08354271686130    2.47632402368975   14.06726625136919
H        13.22115874971177    1.94356854792153   15.00286132103728
H        13.94536660095824    2.27307527269539   13.43878788341437
H        12.21432276097336    2.04836669345986   13.57538149800126
C        14.40817396107914    5.05473386777285   15.18564488557660
H        14.35060243588013    6.13057669960745   15.31071435577052
H        15.28793612609886    4.84251630064561   14.58691913398263
H        14.56866899406248    4.61399319947378   16.16393367008913
C        12.57331233920994    5.18108477661678   12.65459418180981
H        12.29596389608753    6.22523272614493   12.73907762121383
H        11.79565823498218    4.67307446584124   12.09431827814243
H        13.48110767235482    5.13025591755122   12.06108650366285
C         9.21672629445488    6.54281364702212   16.73771297070570
H         8.54214019518890    6.16087229149176   15.97729260905997
H         8.96148088285688    7.58317645340797   16.91615405730225
H         9.01199848052340    5.99646589243829   17.65243809182289
C        12.13953822263123    6.60658578483485   17.77194869770678
H        13.18724230079329    6.41724259886268   17.56576610784472
H        11.83626953840269    5.94499895320168   18.57694995783013
H        12.05854000846249    7.62501439597876   18.13896203122526
C        11.46637272742137    7.74085793042806   14.97300373462301
H        12.51552478061136    7.73511423013041   14.69738356359095
H        11.25004764690356    8.71214032920362   15.40727844836731
H        10.88090115597272    7.65552015936767   14.06480154516814

