42
CSD_code = QEFBAG | q = 0 | S = 0 | Stoichiometry = C21H15Br2N3Zn | MND = 5
Br       12.12002712508684    7.19524480240575    1.18162434043987
Br        8.85209418098081    5.72117693065900    3.75797617423182
Zn       11.10723770838555    6.19056738349833    3.06725849358575
N        11.52107788470832    7.88987048449029    4.46962930296583
N        11.96748009025404    5.33644268922233    4.83524056824658
N        11.70155522909374    4.09325407783884    2.54693970790884
C        11.42475456128227    9.17203525622148    4.16949939341016
H        11.19137969461526    9.40528241335966    3.13923366796111
C        11.61869491471258   10.17539097030915    5.10672436224819
H        11.52746629948467   11.21073994841226    4.82186317658203
C        11.93518715603431    9.80959839517112    6.40480497987404
H        12.10151536229647   10.55916030713228    7.16400274382263
C        12.04179802420767    8.46477959656086    6.71759979879242
H        12.30563466355820    8.15772530116111    7.71673218757338
C        11.82072133193261    7.52189878904366    5.71751383493993
C        11.90241521975459    6.07030330284189    5.94106776459377
C        11.98579915384705    4.00927211331267    4.89915063059223
C        12.00456903745496    3.32615040023917    3.59658314239196
C        11.69397436426839    3.57140836550643    1.33407067252566
H        11.45224741139001    4.24788458846635    0.52530791459761
C        11.98641939965440    2.23770871592706    1.09264095539022
H        11.96618211929300    1.85034976431811    0.08715929307722
C        12.30695322766191    1.42990146718922    2.17126661257886
H        12.54865184006499    0.38741001212115    2.02694590763369
C        12.32033316940572    1.97905893608737    3.44249024138885
H        12.58697700471288    1.37347464956170    4.29348985680345
C        11.94816896685242    3.34555196669398    6.11976045407420
H        11.94916506387175    2.26902012412693    6.16509922593312
C        11.88992031071078    4.08883047110301    7.29729812059592
C        11.83369978601446    3.42551175583743    8.60548432364645
C        12.57474885415523    3.91625056083329    9.67835857232414
H        13.21192288918792    4.77776724141426    9.53895421605517
C        12.52508922885893    3.28681928211902   10.90797438474791
H        13.11040605885704    3.67020950565824   11.73050208259406
C        11.72634192379844    2.16905966772625   11.08556587815239
H        11.68464156486671    1.68227593124324   12.04813244168248
C        10.98063267745568    1.67907891743477   10.02606594562041
H        10.35183054505239    0.81210724809297   10.16288202887902
C        11.03709882394068    2.29775272762619    8.79122552672739
H        10.43665314482467    1.92625180530979    7.97395718771931
C        11.87004129392437    5.47885646721863    7.19859123049334
H        11.77549269348780    6.07746666650584    8.08953265659830

