39
CSD_code = QEFBIO | q = 0 | S = 0 | Stoichiometry = C19H13I2N3SZn | MND = 5
I         6.99994361297589    1.73814486741637    8.78032606858075
Zn        7.44123333784384    3.54592830985594    7.06099798527189
I         6.85013635205253    3.86542197618663    4.60448985735598
S        12.06085526853532    9.19748170636337    6.50533272078849
N         8.52564419673623    5.34641775421849    7.47571203212895
N         5.95960245389808    5.02466202657202    7.90838727972946
N         9.62668916844072    3.06679948781412    6.78211922691430
C         7.83269847579413    6.46108306891916    7.69377128347915
C         6.42882027628655    6.26007997354872    8.08722604743936
C         4.70748900790287    4.74833268562206    8.22208177806955
H         4.38754529514379    3.72825944474182    8.05768741148144
C         3.83773277333160    5.69542708210447    8.73931706923595
H         2.82138247846931    5.42843953817823    8.97841779901875
C         4.31526372234745    6.97895643489138    8.94583341428688
H         3.67671844428142    7.74545721748333    9.35874249349624
C         5.62906643506960    7.26875993159789    8.61839190703890
H         6.02393524785514    8.25699609635462    8.78963555722263
C         8.40192300083101    7.71660203928613    7.52786303900586
H         7.81644784350657    8.60545731099035    7.68515195268951
C         9.73614544244417    7.81774694924566    7.12225248407796
C        10.43673854873817    6.62850064328910    6.90404785362322
H        11.45876841616162    6.67120378280496    6.56490461475798
C         9.79750884885754    5.41088733554357    7.08988874298237
C        10.44959940730027    4.11440394767639    6.84866361693858
C        10.11877691498898    1.86209926778264    6.55982138841376
H         9.40210149839879    1.05267766866598    6.52021834735561
C        11.47405432830952    1.62599248088928    6.38953414235049
H        11.83338721883304    0.62655974701050    6.20656669086602
C        12.34217338150763    2.70262591201471    6.47009245410964
H        13.40676901278175    2.56308937754193    6.35521648317972
C        11.82701174877830    3.96633078742223    6.70468372490169
H        12.48721358299153    4.81449416885593    6.78766269903111
C        10.37258781608622    9.09821910813546    6.92705544022851
C         9.83108653824508   10.35591533307188    7.02889716369961
H         8.80194205758210   10.54943574755317    7.27187864289982
C        10.75683587241405   11.38158978709904    6.77274601065514
H        10.51259707075346   12.42810225518465    6.80466812982604
C        11.99738844376443   10.90582041300723    6.47892485113755
H        12.88448645976102   11.46049833506058    6.24539159573000

