107
CSD_code = QEFCIQ | q = 1 | S = 0 | Stoichiometry = C52H48Cl2P4Re(1+) | MND = 6
Re        0.58232406627740    7.22108351798842   10.87779413912371
Cl       -1.62480362110283    7.01736645202595   10.17942228218156
P         1.02922254975701    5.15985204590904    9.68662855854597
P        -0.17097021290347    5.62075767336870   12.57544282333377
C        -0.28590266892255    3.99632597790362   10.24795264106006
H        -1.22086983336190    4.38757299251709    9.83236669090527
H        -0.11261049299501    3.00634759160324    9.81482814539319
C        -0.33788614083356    3.94792598440570   11.77267643791411
H         0.50691193051805    3.36784427021004   12.15632038991480
H        -1.25725156591554    3.47459319681822   12.12880809836941
C         0.86051239888392    5.09594180717580    7.88096256957274
C        -0.08311452778469    5.91979986603933    7.27191000004432
H        -0.69923966989038    6.57041004216788    7.87782056924431
C        -0.22504602247106    5.91318556081302    5.89671842139623
H        -0.95334102492343    6.56002712536988    5.43087221512332
C         0.57390929590239    5.08563890802084    5.12329914501053
H         0.46819453107162    5.08373329920309    4.04920507183626
C         1.51013788723796    4.26146568884806    5.72743026709991
H         2.13002793686971    3.61518935460610    5.12442814856793
C         1.65929951537963    4.26392092564829    7.10286415078391
H         2.39738700357584    3.62796326952114    7.57029550561491
C         2.61026917761639    4.32696586008806   10.00538313026474
C         2.73471336253600    3.03637956640325   10.50977274494449
H         1.86500852278067    2.43019837934460   10.71309594041249
C         3.99198800624609    2.50541910894935   10.74143219831152
H         4.08169461468583    1.50378947397191   11.13450485069936
C         5.12904250862744    3.24873049384278   10.47178619219397
H         6.10510069143532    2.82887918475309   10.66079936823108
C         5.01111858990938    4.52822066993259    9.95283002227455
H         5.89182073207614    5.11142420766631    9.73058986808499
C         3.75919724214924    5.06392668708352    9.72206634667729
H         3.66048128932992    6.05994228665324    9.31660376528761
C        -1.80133998115616    5.97831766240224   13.28626890419571
C        -2.97460766372135    5.52364754081553   12.69095693123551
H        -2.93772405208288    4.90026022424433   11.80973689079985
C        -4.20271116105302    5.88824119958912   13.21422598759294
H        -5.10799567543658    5.53054073428755   12.74736129265462
C        -4.27308089919553    6.71140006071994   14.32610717806407
H        -5.23332496613321    6.99177197928101   14.73112051097426
C        -3.10868719277232    7.18072875392673   14.91330447096550
H        -3.15523527877072    7.83191288279670   15.77308497905818
C        -1.87821728659324    6.82428132193686   14.39304391422562
H        -0.97132757999983    7.20246354352176   14.84212288644983
C         0.86645738149961    5.12972659732118   13.98742098028829
C         0.35496669786373    4.81763008105784   15.24206201254611
H        -0.70303235656882    4.90042306520176   15.44054315388357
C         1.20746987011757    4.38547171663946   16.24300173191159
H         0.80592465869518    4.14774114154831   17.21653889752464
C         2.56444022229003    4.25076906402671   16.00043406144322
H         3.22304228837327    3.91806735541060   16.78810533034506
C         3.07275337079424    4.53188820236160   14.74239394780541
H         4.12668238395237    4.41444470239226   14.54062164563703
C         2.22721641668462    4.96461904009769   13.73916351868366
H         2.62312912977958    5.18021763699185   12.75598767237100
Cl        2.78916569736181    7.42541552283336   11.57719863434021
P         0.13659043014958    9.28224768435289   12.06853175819874
P         1.33672617728049    8.82144245652150    9.17983443748630
C         1.45162940761184   10.44591024214441   11.50732117962484
H         2.38657204580343   10.05460361898651   11.92291429495563
H         1.27834509169156   11.43589130068032   11.94045869005300
C         1.50359117269266   10.49428908073994    9.98259829995031
H         0.65878741221634   11.07436118202205    9.59894822569400
H         2.42295628356092   10.96761173069001    9.62646883449232
C         0.30517974156127    9.34625491619219   13.87422218458815
C         1.24878452608210    8.52237657200618   14.48328119808351
H         1.86493973902554    7.87178581741955   13.87732081813149
C         1.39065269649748    8.52897235746888   15.85849619128289
H         2.11890303372257    7.88210434402788   16.32437526652005
C         0.59169001936427    9.35653321434464   16.63191105165532
H         0.69737162797719    9.35843517567383   17.70601218590263
C        -0.34449603169579   10.18074346852176   16.02776570442188
H        -0.96437446697846   10.82704651167426   16.63076056369978
C        -0.49361952441992   10.17829037184025   14.65232265353361
H        -1.23167479588438   10.81428424845555   14.18488913909848
C        -1.44449550434670   10.11515364077853   11.74980520367809
C        -1.56896610582870   11.40577820115277   11.24548352484352
H        -0.69927336113492   12.01198366700683   11.04219211608328
C        -2.82624532793163   11.93675388013221   11.01384030777460
H        -2.91595698210054   12.93839380671167   10.62078976365395
C        -3.96330648576902   11.19344721765228   11.28346431511411
H        -4.93936415658257   11.61330307321595   11.09443865623911
C        -3.84538099030569    9.91394447096921   11.80238962475159
H        -4.72609436532473    9.33075074664426   12.02461988728073
C        -2.59345142916349    9.37820034400831   12.03309150021521
H        -2.49474966140165    8.38216404022806   12.43851373945888
C         2.96705548235410    8.46396111282951    8.46889984991273
C         4.14031776612080    8.91859105842660    9.06423524092075
H         4.10343340498213    9.54194390567126    9.94547890394007
C         5.36841608988933    8.55394481185604    8.54099989805733
H         6.27370071728885    8.91164350482420    9.00786576885423
C         5.43877433150769    7.73077620494661    7.42912851277608
H         6.39901269100031    7.45040038864002    7.02411031917519
C         4.27437357106130    7.26145810719887    6.84193333633598
H         4.32091280090222    6.61026996881871    5.98215719757628
C         3.04390838136847    7.61795128722166    7.36216875303367
H         2.13701330320432    7.23974697487394    6.91312089012968
C         0.29923252382399    9.31244899939955    7.76788074452118
C         0.81072231491513    9.62455644696942    6.51323978200134
H         1.86872368355039    9.54178665410859    6.31476477642472
C        -0.04177742564138   10.05672181056753    5.51229746581031
H         0.35977259291715   10.29446819831202    4.53876640799662
C        -1.39875108522481   10.19141040795414    5.75484630922141
H        -2.05734967063615   10.52412145107480    4.96717602853592
C        -1.90706931835587    9.91028958478084    7.01288208819777
H        -2.96100110709253   10.02772479255082    7.21464786355913
C        -1.06153176850552    9.47758174742122    8.01612224556308
H        -1.45744959149091    9.26204370102746    8.99930006957718

