57
CSD_code = QEFCUC | q = 0 | S = 0 | Stoichiometry = C16H32Cl2N2OP3Re | MND = 6
C        12.10663679692524   13.50963400125444   10.03881330800337
H        12.23950824660866   14.58829680324637    9.95098488477673
H        13.07097870795367   13.00590019117497    9.99862573918585
H        11.62175664513746   13.26669851904712   10.98394810961370
C         9.66634596296862   14.09734965281471    8.78294058712045
H         9.20085880446592   14.01168312637941    9.76279987875324
H         8.92788777722119   13.88649453273477    8.01257736847666
H        10.04139234735754   15.11226459814071    8.65546272268944
C        11.93415412601048   13.52731295477912    7.18376862663253
H        12.14500274993803   14.59153853932762    7.28344660729864
H        11.31087405989979   13.34868708342155    6.30855974166717
H        12.86311417032946   12.97047226311616    7.07307374276634
C         7.61054007891244   11.23122820403299   10.05490746027535
H         6.54405109007165   11.00948443029783   10.06643952391207
H         7.76335914947980   12.29996852425551    9.93304977400919
H         8.06792378696686   10.91504462833384   10.99005718444943
C         7.62541849896913    8.69260134666751    8.83673494036649
H         6.54185063964516    8.80859833024482    8.83775752835528
H         7.94651488452651    8.22661404449411    9.76546434580623
H         7.93694847528815    8.08970813556687    7.98769271076232
C         7.54030392312594   10.99301322495202    7.21509112607363
H         7.68514153838080   10.29808102238155    6.39198191352317
H         7.95808472616923   11.95790425529778    6.93656666199060
H         6.47667256685750   11.09288852278840    7.42600743504298
C        12.63250930751975    7.69887205992863    7.36456785791543
H        13.40618635761042    8.45614781567071    7.25510258431876
H        12.04940126531350    7.64560172644407    6.44721225578255
H        13.08520928548563    6.72903476079946    7.56885179100868
C        10.39368425074509    6.71513207510000    8.74677989750685
H        10.98815569559397    5.80220654896433    8.76375645652749
H         9.79106006905143    6.74523700949224    7.84292423283667
H         9.75076669659419    6.74395493593537    9.62245003631269
C        12.53845050381348    7.83157657842518   10.21624997780676
H        12.92829259056851    6.81461207263389   10.17536500956457
H        11.92710750990678    7.96175889240071   11.10805343621381
H        13.35913269789719    8.54634681088475   10.24542023156595
C         9.83318240417576    9.04055403676385    5.20125151135473
C         9.77029547379806    8.93084528910491    3.73376512498767
C         8.99185286438064    7.92343024589479    3.16631600204952
H         8.46022330784874    7.24963765725715    3.82191745735120
C         8.90931922565392    7.79912271395961    1.79309904898492
H         8.30454630824092    7.01754336070596    1.35691227480649
C         9.60322914700313    8.67712070513123    0.97560583252262
H         9.53919665598802    8.57960685879382   -0.09834356833183
C        10.38114240054813    9.67997070448605    1.53455875323639
H        10.92245736448828   10.36087832703673    0.89399261515703
C        10.46680576733639    9.80970807341699    2.90713611306463
H        11.07081146122155   10.58328854406417    3.35597020018773
N        10.75734186043726   10.35233284840950    6.82406933509449
N        10.58263173348331   10.10117517758368    5.64918538183157
O         9.27867432119086    8.26828188906427    5.98028334550473
P        11.06667544782037   12.91372346524063    8.66803590551182
P         8.41103109508688   10.32959436969256    8.68206209125898
P        11.52062511493187    8.15388033561502    8.73897274867422
Cl       13.22004131994416   10.74152883934567    8.62606948546017
Cl       10.75594803406872   10.54894063094999   10.87759079953745
Re       10.83289270903898   10.49408770605215    8.58296385283349

