74
CSD_code = QEFLEV | q = 1 | S = 0 | Stoichiometry = C29H37CoN5O2(1+) | MND = 6
Co       14.31985990340392    9.91249446606236    9.06269766479386
O        13.31104033434239   10.44180941270029    7.64283482566917
O        14.92201409801653    8.60327265388327    7.91673355717946
N        13.00374231579290    8.70514546131788   10.21465373115243
N        13.73216545557138   11.31471928067017   10.07326371499520
N        16.04574192445847   11.57795340466555    8.74674545863686
N        15.52615001396069    9.39536896533044   10.39017281492010
N        13.51777304357881    9.69482185778143    6.55652969344247
C        11.72224920503550    8.14204864126259    9.65128181485051
C        10.77540457794485    9.30278824140277    9.33131980004166
H        11.30164549258650   10.05873302770305    8.75183755729899
H        10.34635417874477    9.76420644634603   10.21612334157708
H         9.95470079174261    8.93165781875434    8.72395981068303
C        11.05810645246943    7.16273858414233   10.63311063028037
H        10.04112469213091    6.97902881243384   10.29763466215990
H        10.99880528185222    7.53834054615859   11.65154518793646
H        11.57590854181536    6.20698799408684   10.64661449802864
C        11.96238158690391    7.38986021091851    8.34044654609955
H        11.04969288780402    6.86625489598842    8.06828465042898
H        12.75432724291913    6.64946019815777    8.40331937926305
H        12.19398130870582    8.07916578803949    7.53689234355476
C        12.70856504728552    9.59677050454910   11.36618220923429
H        11.72935656150345    9.38525797464620   11.79729048869787
H        13.45151031228423    9.41748845600935   12.15237984227019
C        12.81506063879163   11.05113152982145   11.00546323324733
C        14.05202373233988   12.57254471003888    9.76827465483716
C        15.16279965059846   12.75040084355380    8.77360865415685
H        15.70973085550202   13.67696983074706    8.99757198309952
H        14.69967459615178   12.85043798092658    7.78930086915237
C        16.75921722264024   11.42869138371491   10.02887337840086
H        17.80727640419427   11.72411749043211    9.94592300452126
H        16.30216418745686   12.09366407840776   10.77212674973614
C        16.67493340985075   10.03555387648391   10.59630418884958
C        15.28956907895555    8.20821460217150   10.94553287469124
C        13.92762204662468    7.64070494136326   10.65724920498590
H        14.03807868700587    6.91592830232128    9.84784019748575
H        13.54167046368426    7.11905815022783   11.54074825872876
C        16.24442823887053    7.57740825937834   11.72747131393184
H        16.04153781914655    6.61457323203821   12.16805843395871
C        17.46398469877436    8.20952661524989   11.92066707330452
H        18.23402487991370    7.73712896603843   12.50966282536450
C        17.67863040357319    9.46118203216835   11.36199637068870
H        18.61002263623511    9.98124232556531   11.51942289993403
C        16.98344567885139   11.57027291915319    7.58203417230741
C        17.73298251160949   10.23453165285262    7.58700103306725
H        17.02549833416104    9.41072356589164    7.60278460967099
H        18.39886018952146   10.13786344136236    8.44028265389689
H        18.33520315310691   10.14984985998888    6.68702839359274
C        16.20026467486617   11.68932674921419    6.27028344360598
H        16.82148605653171   11.34637889159920    5.44755252663699
H        15.92047813608666   12.71846596307609    6.05818116552116
H        15.30714071988679   11.07504628527816    6.28051164144014
C        17.99675593203352   12.72668725329964    7.61715772260149
H        18.70738948327597   12.64807125591940    8.43562689941541
H        17.50310144920474   13.69283744594530    7.67543406824398
H        18.56850448783069   12.70501708135591    6.69409351213837
C        13.38972744793820   13.63800369281303   10.36308538216048
H        13.65211373359451   14.65059563434876   10.10176540675834
C        12.38877111608118   13.37926457398163   11.28510274311412
H        11.84482600364485   14.18991392962448   11.74279662478002
C        12.11086460375501   12.06359284713570   11.63229202760877
H        11.36347628745648   11.83361902348939   12.37434250284068
C        14.38943686352818    8.75221938673845    6.72856883224486
C        14.71011408781837    7.82534493915175    5.64559242196137
C        14.08183677992312    7.94322844091935    4.40719412628014
H        13.34625291150397    8.71947007838834    4.26849214671172
C        14.40734808593493    7.07260420996757    3.38599566791238
H        13.92169652979275    7.16374206026036    2.42636497417281
C        15.35451732438343    6.07981480997348    3.58980022225223
H        15.60391291799921    5.39965863072089    2.78960116119242
C        15.98066099290461    5.96014506174451    4.81968848600066
H        16.71962893297754    5.18877445891394    4.97720508575702
C        15.66176791878377    6.82809946132778    5.84666397048846
H        16.14558575384140    6.74718360193113    6.80912598334508

