91
CSD_code = QEFPEW | q = 1 | S = 0 | Stoichiometry = C42H40N4O2P2Rh(1+) | MND = 6
Rh        5.13487983618666   18.53054869875713   10.99620821192741
P         6.55585136952762   17.57998611371797    9.50819954088551
P         3.50353480697700   19.50875782318115   12.26505179273090
O         2.73540912901250   17.09515166532562   10.91021870051857
O         4.92484265968343   20.88698592875856    9.43716376770780
H         5.65354031010925   20.81747031973081    8.80726965395364
N         6.93241839156254   21.19217097687660   11.42646662876911
H         6.13984541524024   21.51804068580973   10.87775879892943
H         7.30761438034356   21.87350331913634   12.07832371290390
N         6.71303397691780   19.94658475218414   11.89211939298954
N         6.17300882120109   17.47151170372353   12.65497781691441
N         5.79195188779963   16.23048143406146   13.03712237911950
H         5.24839016328660   15.74844967854884   12.33511053519626
H         6.47658700264382   15.65614330090599   13.51608137580760
C         7.42581919671253   19.44987210257281   12.85214713670438
C         7.10217283881522   18.10548480039449   13.29620504110904
C         8.54550847737729   20.22816096473091   13.48306988661464
H         9.04978657405779   20.82732087803050   12.72566181248405
H         9.28636582765201   19.57084020609331   13.92437492274922
H         8.16565965333578   20.89767580426955   14.25671074825403
C         7.78992100675277   17.48586568276731   14.47880579006616
H         7.05578569810337   16.97794087950217   15.10429327873463
H         8.28370663480173   18.23009601353173   15.09202183922384
H         8.53472026960466   16.75703500529199   14.15220811671524
C         5.58120332038914   16.17890963242237    8.89486692251911
C         4.28082938952306   16.13042587219642    9.40913423272361
C         3.41950372061850   15.11113088267135    9.00943349137143
H         2.41682771019810   15.08875740326147    9.40972288359183
C         3.86053269446941   14.14871506523163    8.11901992002210
H         3.19328564257110   13.36066653073968    7.80563184742805
C         5.16255051151874   14.18128060938164    7.63840635456676
H         5.50508465076269   13.41469727422918    6.95994216693772
C         6.02825763800522   15.19155027253129    8.02579561708010
H         7.04898255389718   15.20521022014406    7.66862059552044
C         3.83525788282054   17.14360157953394   10.41283603239701
C         8.08428699002053   16.79700699785193   10.11743036066952
C         8.00281513672439   15.53272354553579   10.69832987951957
H         7.06751163985143   14.98870047365883   10.67088877666603
C         9.11577013284453   14.96213585551080   11.28707972124614
H         9.04721073820387   13.97677265743838   11.72435084172978
C        10.31838201399622   15.65072916922966   11.31208533897996
H        11.18651517413230   15.20493500361846   11.77277400959622
C        10.40467388976156   16.90828302135221   10.73790451892168
H        11.34228147026205   17.44322128406201   10.74920298429397
C         9.29357585527978   17.48337930480072   10.14693371627474
H         9.37272141521030   18.46052920178895    9.69434182917587
C         7.08078314424888   18.52559254496587    8.04286905063623
C         7.67946471301367   19.76438605242538    8.28115982000185
H         7.82335946747055   20.10096945107466    9.30050135138494
C         8.08221858001981   20.56006533016638    7.22346317395860
H         8.55265267716422   21.51296069135422    7.41485983322970
C         7.87473718896051   20.13530740297401    5.92057053400499
H         8.18815970667804   20.75445586720935    5.09452275554365
C         7.25305137369703   18.92108492222762    5.68026161242186
H         7.07673744084545   18.59693756295390    4.66597672937370
C         6.85114738659248   18.11738432076913    6.73390753739634
H         6.35207573794660   17.18122795974929    6.53343197878439
C         2.27068850944170   19.96003734941463   11.01549645251664
C         0.93783283516983   20.25691460674062   11.25737330121297
H         0.55019257486601   20.24163215312178   12.26505201233142
C         0.10217727980550   20.54724202103917   10.19273064608459
H        -0.93797245884738   20.77271030343719   10.37243843279749
C         0.59459318928395   20.53496052383573    8.89809541769987
H        -0.06208374903281   20.75484944620429    8.07010763392296
C         1.92428509167141   20.23047335388882    8.65699767814315
H         2.30066161138297   20.21521013838068    7.64411750031648
C         2.77301734788623   19.93809946686994    9.71445121842899
C         4.23448632529834   19.64282271037953    9.47630375706908
H         4.32712185049558   19.15701834002004    8.48668278911182
C         2.58465588329505   18.82328353414852   13.67240616060234
C         2.63001660273341   17.46617829294653   13.96309008662297
H         3.22742619542323   16.81035952391325   13.34898361719637
C         1.90549093588290   16.96154349602309   15.02860792548135
H         1.94075662581418   15.90554628990035   15.25133023878650
C         1.13396811874730   17.80752940394024   15.80747185426122
H         0.56573007019647   17.41248279539480   16.63581509717806
C         1.09450430242659   19.16449643296517   15.52707200580128
H         0.49799468947888   19.82599153531883   16.13746740074029
C         1.82011157514637   19.67556893317580   14.46735088533341
H         1.80500443890098   20.73791368456170   14.26308155788306
C         4.05494796978294   21.10329548918354   12.95318838240622
C         4.75315333220336   21.08850368578176   14.15944455600473
H         4.86553970175311   20.15346867172278   14.69420418211889
C         5.28357056203187   22.25771283191049   14.67029121342001
H         5.81293648258601   22.24557253192877   15.61216794951634
C         5.12956472860640   23.44963577350356   13.97673842890058
H         5.54081500799775   24.36344946420850   14.37827497745031
C         4.44459459994034   23.46715837502939   12.77281128146912
H         4.32287536018975   24.39532434517738   12.23488293442254
C         3.91240174484193   22.29731056591237   12.25583331924511
H         3.38553874919966   22.30679122905016   11.31221180654086

