91
CSD_code = QEFPIA | q = 1 | S = 0 | Stoichiometry = C42H40N4O2P2Rh(1+) | MND = 6
Rh        4.23580680718952    4.59344603786484    5.02283500606606
H         4.18564608678411    6.06330928148122    5.34928240022743
P         6.00799139022070    5.12731970266612    3.71752357818147
N         1.88218630106505    5.27295952987019    2.96729345064055
H         1.18158825842826    5.02453105659084    2.26717796789921
O         5.48998199495218    3.59313614911588    7.28497319135456
C         2.83845028005769    3.16690969006611    2.74933980087280
O         0.61368930602505    7.13572634450418    3.52484896990308
H         1.24297406191693    7.75865601633027    3.14440498224059
P         2.48124601029791    4.26906785962884    6.48582738328434
N         2.74043509216581    4.31670151354482    3.34106513035418
C         3.80399321973939    2.23352287487522    3.30272703364461
N         4.35447050656936    2.55278318788853    4.43583740356632
C         1.95763548382295    2.76596620827636    1.60114156831560
H         0.94512380631621    3.14644141016879    1.74698583706848
H         1.88833472596328    1.68709979195820    1.51429671703519
H         2.33674151245536    3.16864604778897    0.66141518674565
N         5.21525709149540    1.71887739669015    5.05339635152800
H         5.33596826679754    1.93884481005484    6.03692640846579
H         5.13334841481471    0.73021139949405    4.84637366058344
C         4.11012259720746    0.92966339224946    2.62391780706863
H         5.17474335591186    0.71292799145797    2.71084831428268
H         3.87176471578251    0.97299700743462    1.56696407931864
H         3.54890588194111    0.10773877324144    3.07323077268061
C         7.23773983094763    5.61943189038899    4.96181946284050
C         6.89156094933421    5.19863314584361    6.25128206215529
C         7.73759964650732    5.46667962046945    7.32145968450859
H         7.46532711963725    5.12805899635297    8.31008004945884
C         8.90643561218380    6.17580366831167    7.10202324751923
H         9.56013806262072    6.40119941499422    7.93054880364385
C         9.24322549541579    6.59655608598559    5.82386568604319
H        10.15694221197016    7.14851042644781    5.66400556412352
C         8.41690641363669    6.31354267971895    4.74631843513696
H         8.68433046694966    6.64218592559094    3.75276555165930
C         5.63718684056435    4.42389564183224    6.41761440752151
C         6.00576801794784    6.47076763765067    2.49850402251366
C         7.04624552573113    6.60872739079312    1.58231180349071
H         7.84563726456541    5.88069731642906    1.55626089887169
C         7.04423125297424    7.67040387031270    0.69657502110116
H         7.85181749878514    7.77913047405774   -0.01153882630594
C         6.00898211081489    8.59234903006506    0.71491660981948
H         6.01239831519934    9.41830665759876    0.02037570646274
C         4.96936822046644    8.45267884347882    1.61992205000332
H         4.16404044694204    9.17203161510770    1.62950316647029
C         4.96714610433620    7.39464237793228    2.51108034592214
H         4.16494461273063    7.27014004027401    3.22618623566049
C         6.79234383831007    3.75893719732418    2.81652728669032
C         6.33530806862374    3.45661852629276    1.53572827400590
H         5.58814626443430    4.09003403879759    1.07450956322539
C         6.84788218613665    2.36673722699817    0.85782499890461
H         6.50322145140859    2.14095960515804   -0.14027137227343
C         7.80575731396230    1.56444165456613    1.45961509975945
H         8.20787429856631    0.71543912849173    0.92814102427798
C         8.24644479920637    1.85082865984069    2.74187449430203
H         8.98984351058697    1.22372122635379    3.21028819856708
C         7.73789286658714    2.94120351124956    3.42564452328829
H         8.07827110449189    3.16506196549388    4.42728969009894
C         0.76078267166437    4.28783067598661    5.82741404527974
C         0.32482716807176    5.16045120131185    4.82374382111171
C        -1.00623944441934    5.15326911106819    4.42577352723815
H        -1.31457942753360    5.84112583584345    3.65391312559258
C        -1.92342363698765    4.30790364275910    5.02109126630768
H        -2.95613010194163    4.32490153080000    4.70982041165820
C        -1.50261815047675    3.43917757972588    6.01262334737154
H        -2.20410584975983    2.76848563767797    6.48503633008058
C        -0.17755426454496    3.43186971041331    6.40701388917459
H         0.13342951687884    2.74126929849223    7.17769713203507
C         1.28589001459751    6.05301235133023    4.06674678435258
H         2.11280804143219    6.35914252242801    4.72841367881014
C         2.57119348699510    2.61147274120780    7.23503249568795
C         3.03606963950304    2.42362407620955    8.53083492500856
H         3.27644700815324    3.27872082248949    9.14474586663530
C         3.19374416091480    1.14130486677516    9.02866133348698
H         3.55086708856306    0.99995402065759   10.03718393917016
C         2.89750734280344    0.04332409080036    8.23897283293481
H         3.02081237031195   -0.95481762521181    8.63049166090664
C         2.43818622960469    0.22563282659638    6.94284538454779
H         2.19947625577416   -0.63048595757370    6.32821518846990
C         2.28100559525170    1.50272840629306    6.44018754235170
H         1.91159998341708    1.65293117858056    5.43238207891301
C         2.32100142080759    5.35978091653936    7.94139457997242
C         3.37576339106557    6.19025694924474    8.30441796116683
H         4.27083071990552    6.21661230185386    7.69771196374104
C         3.28464297436789    6.98127970917464    9.43609589425832
H         4.11042774331329    7.62013642807458    9.71079366583641
C         2.13791736952479    6.95507764267234   10.21146193563207
H         2.06580521632622    7.57325965185837   11.09303664082000
C         1.08086640530212    6.13466147242361    9.85106288058592
H         0.18344972279302    6.11341832937058   10.45066745736080
C         1.16854406581660    5.33893731545606    8.72406613924445
H         0.33629238215168    4.70651177511978    8.45306550351423

