49
CSD_code = QEFROK | q = 0 | S = 0 | Stoichiometry = C17H23ClN4O3Ru | MND = 6
Ru        1.92306048838093    5.08277584788971    3.50311322186084
Cl        0.84897631301659    3.37318286977349    2.23482900781746
O         2.76700239918645    6.59104328844963    4.70556901302166
O         2.33822049718571    7.72936587981649    6.56207246609077
O         0.11763134943013    7.36007058587294    7.77999886340672
N         3.45447513896637    4.95786734270325    2.41550974122175
N         1.44893528745203    6.64216678139964    2.08296575906060
N         2.94470385642482    3.50388946186806    4.55781799332212
N         0.41958930992558    5.32647784991321    4.79432437057284
C         4.26823748727802    3.90246008597201    2.53298978516355
C         5.43780399389219    3.82072068224799    1.80103335680779
C         5.75325561238142    4.85391644822331    0.92467131515045
C         4.90605213809010    5.95336226649355    0.83250050642040
C         3.76339228456746    5.97988176549511    1.60964540092481
C         2.79999391913114    7.13093961998448    1.73748788815580
C         0.64810791698786    7.73926116207100    2.62031441220177
C         0.80512986815993    6.14367053389784    0.86677079522299
C         3.73228762961974    2.86268796253994    3.48074060249948
C         3.86457158080983    4.04257067056192    5.55847309982817
C         2.07593265538270    2.51029562638501    5.18608940257379
C         0.70418512789917    6.19913209966478    5.78002725138828
C        -0.19133727758681    6.49049707899983    6.82156979250582
C        -1.42798861401988    5.83438250456765    6.82548512783386
C        -1.70475989401780    4.94736395660802    5.80357196179916
C        -0.76684508793675    4.71829691648158    4.80904504092124
C         2.03934055873536    6.89461399868327    5.69176493592944
H         6.08738230622135    2.96587204473417    1.90518944501266
H         6.65180777475144    4.80832111335874    0.33077535550556
H         5.13883398669676    6.77730221608946    0.17640811939221
H         3.15254946408549    7.74845357694413    2.57290915348298
H         2.77450662102777    7.74550868917852    0.82704556368559
H        -0.34993037238120    7.37184828387921    2.86318199908280
H         0.55514845104847    8.55419122230011    1.89058053322719
H         1.10920474764555    8.13380229185016    3.52587676557905
H         1.41715186207641    5.36281030477722    0.41445451844935
H         0.66599723108940    6.95642171605343    0.14190969308697
H        -0.16478381123511    5.71315098873575    1.11315046315676
H         3.04833906273638    2.22157524374231    2.91069248404317
H         4.53661689187928    2.24302933006949    3.89968878177489
H         4.51522118693382    4.79045698054786    5.10386183673527
H         4.48141026100668    3.24308170037156    5.98961150729656
H         3.30423290536692    4.52001617524208    6.36254455772412
H         2.65824427591080    1.66717581926696    5.57715663658679
H         1.35741335367519    2.14547063139872    4.45155638260063
H         1.53131449543834    2.97277506878483    6.00983123159797
H        -2.13060488812301    6.03773847955206    7.61733544562058
H        -2.64910470871117    4.42681845073410    5.77182516163014
H        -0.95719881525394    4.02388366926854    4.00065046260131
H         1.03219317877349    7.71500271655508    7.56108279042663

