60
CSD_code = QEFSAX | q = 0 | S = 0 | Stoichiometry = C28H25ClCuN4P | MND = 4
Cu        1.10783769234742    1.15529764120161    2.61636776956451
P         2.48696116255618    1.72624352235401    4.34053728348188
Cl       -0.62238200499422    1.24473647274208    3.90005659360441
N         0.73117538155173    2.20437459146520    0.96260403125443
N         2.20539090747450    0.51908479989288    0.22619433078633
N         2.05978786475324    0.01663198829727    1.43568304114973
C         1.68626616854700    3.10649145679625    5.20360029023294
C         4.15215957964376    2.37858029755647    3.99309728276913
C         2.75915174252181    0.49038747873150    5.64210722400114
C         1.34169352755963    1.50585084871799   -0.00540897609262
C         3.00990694707447   -0.89606566273632    1.84268158659517
C         4.01565327510157    0.07862642934337    6.07167045953438
H         4.90833024244254    0.52977477930580    5.66300612802091
C         4.11963633191336   -0.90972146106290    7.03494725642490
H         5.09683975040755   -1.22573567043329    7.37136601981820
C         0.41758535981611    5.27134308261030    6.37273705419276
H        -0.08484641759259    6.11042377990310    6.83131096196721
C         6.68906699192555    3.28335227440790    3.30993235891593
H         7.67600360602944    3.63578177484532    3.04886979366598
C         4.53417885114452    3.68148333789075    4.29484420723719
H         3.84444425622358    4.34352779564367    4.79895151267588
C         1.66544328729378    3.23052791536021    6.58677495637783
H         2.13698083438048    2.48052818604742    7.20626277929722
C         2.79212966695820   -1.54424684632969    3.06605082233170
H         1.88682480931229   -1.32109015884152    3.61506648325210
C         4.15344171298212   -1.21144528142939    1.10015354739118
H         4.30650942599624   -0.71915955482179    0.15244644289356
C         5.80025104830453    4.12604391006642    3.95639951306632
H         6.09411234750395    5.13680792235683    4.19979069383047
C         1.02829583334963    4.31448798679256    7.16548639648907
H         1.00457731701865    4.40872820540612    8.24148006629943
C         0.44025141462681    5.14938186411599    4.99180199432279
H        -0.04405090148676    5.89258954940965    4.37533317481850
C         5.04478594086433    1.53925871065403    3.32687275891534
H         4.74004498596515    0.53250384837599    3.07771157393761
C         1.07051412725018    4.06872793560643    4.40716150952319
H         1.07940358985172    3.94295597856784    3.33073212887494
C         3.71686539651732   -2.44090232871025    3.54980355127473
H         3.54692420683873   -2.92208942082844    4.50215433255900
C         1.61232837149765   -0.10007416338468    6.17450939516630
H         0.64108670950351    0.21993601127288    5.81864210663450
C         6.30801860944288    1.98843347664973    2.99398859781684
H         6.99491491133864    1.32856254448842    2.48426524268155
N         1.00407201668619    2.00379143633822   -1.22124444249155
H         1.29871886345696    1.62834885788580   -2.10569500614536
C        -0.04911348189540    3.12502515467861    0.34363192247832
H        -0.65385133397096    3.80684224206089    0.90707520531905
C         4.87138948531033   -2.73858238909739    2.82636057710010
C         0.10605039696871    3.01685437411606   -1.00636464135331
H        -0.31419515285788    3.58418227060118   -1.81074288195774
C         5.06444341264904   -2.12170801605094    1.59386584830350
H         5.94927846671720   -2.35316611137871    1.01753393177676
C         1.72781695036667   -1.08455813963854    7.13691013135908
H         0.83902036588431   -1.53871545226840    7.54917017985449
C         2.98140857626549   -1.49228580206505    7.56719970772176
H         3.07145295818692   -2.26519059231573    8.31670181594835
C         5.86579014099404   -3.71652656205310    3.36938591164437
H         6.77486984993863   -3.72370428093178    2.77342750946688
H         5.44356943436755   -4.72145697170633    3.36561065384402
H         6.11948418903870   -3.46908586646090    4.39892929950391

