31
CSD_code = QEFTAW | q = 0 | S = 0 | Stoichiometry = C12H12CrO6 | MND = 9
Cr        1.01280887224594    6.72334940367048    2.58870702286383
C         2.84405937262384    8.08950865444802    2.91289852023543
C         2.54329016248085    7.94999396606729    1.53232538530942
C         2.54586218175842    6.67773097066767    0.94581923503487
H         2.41607908227112    6.60210281508321   -0.12687853889813
C         2.77739688792452    5.53110190376954    1.72476575958744
H         2.82867957018374    4.55840184473999    1.25122245522465
C         2.99246499336822    5.66254227279244    3.09187783786632
H         3.21152877643264    4.79522921656109    3.70192667647153
C         3.01882763405590    6.94289499953207    3.68898086027598
H         3.24366977028173    7.02159866509819    4.74321491740770
C         0.03839892701596    6.34126364265934    4.08242515274512
O        -0.64747890282094    6.16381771026828    4.99400580824702
C        -0.27837778255397    7.98404204480665    2.44963724898923
O        -1.14362078238483    8.75282757694358    2.34588994303814
C        -0.29203021902274    5.76315443442830    1.75449795279090
O        -1.17571374084323    5.21519545937954    1.25125031723178
O         2.92313599407100    9.37384387710896    3.39011010510409
C         2.95181092866944    9.55430845846364    4.79048032270615
H         3.87091409715031    9.12388640739359    5.21419566751635
H         2.96639173101637   10.64619555025959    4.91742080914907
O         1.89018023461651    8.96097953771479    5.44580156348507
C         0.66178302855333    9.66404752701878    5.33505579548936
H        -0.08230402228763    9.04350357518742    5.82685932526253
H         0.37887275789800    9.80919447131829    4.29065314047895
H         0.73356097402459   10.63518354644009    5.83552305944615
C         2.29820199733166    9.16288835910481    0.66541835492841
H         2.03503636856976   10.02046311042172    1.29779093191379
H         3.20935134660840    9.41647363172982    0.11003223754140
O         1.31519967065126    8.92130307619948   -0.31031456688781
H         0.45742009010955    8.81727329072300    0.12200669944491

