92
CSD_code = QEFTAZ | q = 0 | S = 0 | Stoichiometry = C49H38Cl2P2Ru | MND = 5
Ru        2.77892457508915    7.86423053884383   16.69204527162998
P         4.89492790998489    8.77486220207758   17.03348950687499
P         0.63017842921652    7.03986211234711   16.93838885435176
Cl        3.62239158644387    5.81002145309976   17.46339139460814
Cl        1.74625797696453    9.97522059406762   16.80964691985830
C         2.87099561367074    7.61231200558662   14.77312186350499
C         3.14009964256103    8.62337494475878   13.76909923256612
C         3.31410858991881    9.99719122610340   13.88051097127512
H         3.25687419397810   10.48121532020643   14.84087884983779
C         3.51646106481046   10.74757797807129   12.73174081441394
H         3.66256533462968   11.81435091953682   12.81789288337818
C         3.53005474534792   10.15222338335533   11.48024533159839
H         3.69793561849341   10.75625707694709   10.60013417719130
C         3.30266150505527    8.78717327797563   11.34307450898861
H         3.27622695795025    8.33139599415436   10.36382712099421
C         3.10237714907174    8.03199739889227   12.47870493394154
C         2.80189202253068    6.61969977614303   12.64997228440597
C         2.66393418863446    5.60246482206883   11.73005963225909
H         2.77201108508751    5.79538526417516   10.67254896984928
C         2.38961832535927    4.31866722367009   12.18881926864949
H         2.27004292858389    3.51230084979951   11.47959412479591
C         2.29010201989199    4.06156938610708   13.54682062711461
H         2.10154236513162    3.05438381509614   13.88858894899740
C         2.42979757077455    5.07740947354099   14.48098497579916
H         2.38907041368451    4.84808128168758   15.53294956401880
C         2.65764625758549    6.37596895062721   14.04173392556370
C         6.28633978266165    7.66918743947645   16.63342199199102
C         6.13759091995767    6.78040069129008   15.57376769890359
H         5.19292263527150    6.74329798002216   15.04230243347614
C         7.17935191798496    5.94381939513818   15.21911571476350
H         7.05656116780245    5.25082644682187   14.39988387811312
C         8.37296245888269    5.98985555537969   15.92121498501524
H         9.18526900334536    5.33172114045400   15.64950839794979
C         8.52469801032148    6.87550816021778   16.97579503027104
H         9.45525899875773    6.90960183385572   17.52375309536751
C         7.48670895698961    7.71657274329119   17.33376962681788
H         7.60554204610412    8.40643003302122   18.15806095819828
C         5.40650329272546   10.33015511603560   16.24581386564263
C         6.35869047845223   10.35816362056941   15.23352163380357
H         6.85086967740600    9.44519208664811   14.92941687076436
C         6.67265928060305   11.55479102540962   14.61349523071229
H         7.41499701952678   11.57148770352692   13.82888787272918
C         6.03592292053862   12.72473215582154   14.99096861802873
H         6.28356387631740   13.65641582134043   14.50348845978134
C         5.07292099623699   12.69877903734430   15.98793438696138
H         4.56426972524433   13.60750731794360   16.27486504817711
C         4.75332158660880   11.50766705912619   16.61054702956632
H         3.97880343323591   11.47647521815036   17.36492530472220
C         5.18098128394474    9.10608581554203   18.81090067336000
C         5.79978388773240   10.25711700673201   19.29111331125212
H         6.14338577687983   11.01796828520689   18.60532124547854
C         5.98283604871358   10.42979083033769   20.65176842712796
H         6.46224662305098   11.32751511975689   21.01478731492174
C         5.55842507985294    9.46131482732778   21.54653088291738
H         5.69950976599525    9.60595356876380   22.60773679530623
C         4.96129930039471    8.30438444866457   21.07441952996442
H         4.64114031043850    7.53598561225094   21.76337291443326
C         4.77551079835336    8.12599335498028   19.71585330095827
H         4.32956629399182    7.20705397028573   19.35376385891376
C         0.06183334597940    5.35848912157868   16.54852168483017
C         0.50888488640669    4.30092436587649   17.33869723206853
H         1.15253503569464    4.49994093360112   18.18461991315614
C         0.14904502308832    3.00443750813946   17.02587378323381
H         0.49822596827688    2.18747213610546   17.64026586687682
C        -0.65093638220230    2.75179115926079   15.92232511427859
H        -0.93069090619206    1.73713504995277   15.67927681805081
C        -1.08650905972061    3.79944201338199   15.12842911327663
H        -1.70437885208485    3.60361413244678   14.26425461159718
C        -0.72850777698691    5.10022744720670   15.43403530726698
H        -1.06206958591728    5.91638883607810   14.80843026917756
C        -0.69132791092614    8.06882804415490   16.22445233915784
C        -0.50626474734277    8.49343183584270   14.91084901993325
H         0.40705154032935    8.22335600845357   14.39180929147097
C        -1.46244366732999    9.27528475606499   14.29284740520907
H        -1.31107747941739    9.60716738528173   13.27614974049053
C        -2.60552519584949    9.64383560386723   14.98516865112753
H        -3.35055652818967   10.26216649590738   14.50641240350090
C        -2.78622777322620    9.23205710979635   16.29445269986745
H        -3.67117268808495    9.53012434350533   16.83797255430679
C        -1.83333333790677    8.44486522382194   16.91814759489323
H        -1.97242839480578    8.14060779247464   17.94588764159036
C         0.37125429115621    7.11048908492777   18.73789572824732
C        -0.67131582112529    6.44967865760103   19.38425890548249
H        -1.37148043959019    5.85812893314566   18.80945287351528
C        -0.79672348260837    6.54007955900394   20.75803996993357
H        -1.60728593869694    6.02888573984032   21.25716973229923
C         0.11549298270291    7.27785149948013   21.49732144029156
H         0.01324516203214    7.34005935468139   22.57078140461725
C         1.15937902380475    7.92948090820439   20.86241723200650
H         1.87598286077866    8.50125505787924   21.43435210571502
C         1.28433577144307    7.84602616422040   19.48778667782773
H         2.10297865204369    8.37343004895787   18.98965353173885

