38
CSD_code = QEFVOM | q = -1 | S = 0 | Stoichiometry = C18H15Cl3PPd(1-) | MND = 4
Pd        4.05450159072486   -0.56894864712934    9.62550688452877
Cl        3.23764998044722    0.95635308618206   11.11339002943244
Cl        3.78583881919117   -2.26560974588769   11.08800431695794
Cl        4.88924229437845   -1.98404456570792    7.98933385148079
P         4.42184314327885    0.96613961734882    8.06138535619674
C         3.68926738059452    0.42219903868232    6.48565224643586
C         4.27431151660855    0.50000102910693    5.23082548829748
C         3.58825266017936    0.02821675493201    4.12377556673691
C         2.32366332698636   -0.51674590859820    4.26286814262959
C         1.74124213898750   -0.61026787039705    5.51843453354908
C         2.42412181073620   -0.14787935699764    6.62534364776813
C         3.86746734036166    2.70346273332221    8.15223102589354
C         2.97358317815674    3.28559333067069    7.26254206267470
C         2.59292811367348    4.60604866816987    7.43010189659476
C         3.09241333636244    5.34716765993163    8.48730948134565
C         3.97314089568756    4.76510982745279    9.38620824701619
C         4.35770990446071    3.44946386405421    9.22131386310502
C         6.19853970888304    1.25466288131284    7.77831918921705
C         6.67594182922693    2.22072692107887    6.89766087511148
C         8.03810322604568    2.41760038796849    6.76203162866398
C         8.92809698418762    1.66683011167743    7.51375488633684
C         8.45615961893158    0.72713771117889    8.41593466815567
C         7.09462459371758    0.52452716742519    8.55257490638270
H         5.27023591152530    0.90333910305232    5.12013034165450
H         4.04841973053725    0.08023135624440    3.14627303467840
H         1.79589225862238   -0.88561903861955    3.39416313360778
H         0.76288662916159   -1.05593276708003    5.62968795108897
H         2.00146354123842   -0.24542502365821    7.62923321870974
H         2.57589930005909    2.70722480690524    6.43919922356134
H         1.89950665667474    5.05700458678925    6.73284204267815
H         2.78854402277680    6.37704192541135    8.61583438998044
H         4.35186371994777    5.33867138621692   10.22013693566216
H         5.02488912720228    2.97385134183859    9.92801763747326
H         5.97816699085677    2.82618598157733    6.33411135531103
H         8.40883306316140    3.16359725373573    6.07195739785554
H         9.99218267868691    1.82434695550572    7.40316404600862
H         9.15090679713703    0.15545009254104    9.01414395594587
H         6.70466618061107   -0.20751265624183    9.26540254126781

