41
CSD_code = QEFWON | q = 0 | S = 0 | Stoichiometry = C18H18N2NiO2 | MND = 4
Ni        0.46871409993467    2.16918153520215    8.42635798215822
N         2.20773545017867    2.84898078214201    8.46103532518791
N         1.02926876518686    1.04123193029991    7.08246815230836
O        -0.07789506000436    3.21651218917029    9.83888644840831
O        -1.28071685839537    1.57416818258597    8.29854482448902
C         2.67934665844803    3.73416272479460    9.28198528496791
C         0.31748050433368    0.25826694300902    6.33609448606559
C         3.02446047947228    2.41831259594233    7.31532588276560
C         2.47151018891415    1.03847103313855    6.91492645748529
C         4.52015459516562    2.29311827105417    7.62422245654032
C         2.79131593354719    3.41860122986446    6.17449262523197
C         0.59962767904941    4.00129518665062   10.58613324507389
C        -0.03652888274293    4.62763744068012   11.69297107667721
C         0.64027047543942    5.48700673092769   12.51087265858239
C         1.99178604071898    5.78664940489635   12.28544831278195
C         2.64156757366109    5.20780102126175   11.23131377709561
C         1.98050419392123    4.31072245242522   10.36893782070822
C        -1.81561581703135    0.77741006743720    7.45307721862529
C        -3.21646424599036    0.54255951269330    7.51093726282039
C        -3.83491363725617   -0.29859762584401    6.62968416725494
C        -3.10741542438772   -0.96642431291434    5.63409633748126
C        -1.75678830972269   -0.77338253785690    5.54491863217392
C        -1.08357918856945    0.08706089805748    6.43357678948961
H         3.70065493684533    4.08727370524997    9.14830075761587
H         3.68428632154538    5.42825621063196   11.04547435529126
H         2.50845521158722    6.46947598189596   12.94233367785059
H         0.13025796741803    5.94679619790546   13.34542628435461
H        -1.07680906027341    4.39376447679438   11.85800503030905
H         5.00864600136462    3.26319201162813    7.65718178915882
H         4.99696191843201    1.71049589464298    6.83957093498395
H         4.67250688871718    1.78512404117578    8.57419083467562
H         3.11172370702870    4.41384617851723    6.47425773085906
H         1.72843256766153    3.45802542520906    5.93474506830619
H         3.34713140560127    3.12172229615610    5.28842378883220
H         0.82816780409080   -0.33241043868886    5.57168383944265
H        -1.18027464699529   -1.28220348579505    4.78421354193942
H        -3.61510915929916   -1.62682085855287    4.94798913621296
H        -4.90211923499503   -0.45520284522800    6.69742540406227
H        -3.77023972390398    1.05965899160133    8.27921474095717
H         2.75039543557411    0.79028838871861    5.88306609790503
H         2.89850644572941    0.27727217251998    7.58128976286926

