105
CSD_code = QEFXIK | q = 0 | S = 0 | Stoichiometry = C50H34F12MoP2S6 | MND = 6
Mo        3.24104456057223    9.39733227546715    6.70841641567815
S         2.40988345868926    7.21636978781425    7.15694950861871
S         2.03655854289350    9.90398648807507    8.69950289137319
S         2.20787231576843   11.43362228756354    5.97524153122131
S         3.06312349653050    8.86292537761230    4.40002578115789
S         5.03928105371746   10.70999399081680    7.64909175427363
S         4.30472820775886   13.23288418916805    5.93019349259563
P         5.18459670564413    7.95091337324975    6.50942353710632
P         6.06383691211318   14.30577510324809    6.13936698441363
F         1.71131900605976    5.77437257990936   10.59440841204441
F         2.04930374518936    4.90953161572684    8.67067455274718
F         0.08087853801171    5.57436707287875    9.20094074219177
F         0.41163554977258    9.76527131767646   10.98118877450579
F        -0.08666432093768    7.68543467450984   10.99088444555976
F         1.83506721792850    8.34036532857883   11.71102590826217
F         0.90639073176116   12.48387558646861    2.54349361578459
F         2.73375554306320   13.42254978730501    3.18396569987785
F         1.01227188706642   13.45054699815443    4.45026750890302
F         3.12124304300975   11.32532545821542    1.50269601061840
F         3.44090158285031    9.21959228545264    1.65202520549680
F         1.44045576263677    9.97763506042079    1.50368979408409
C         1.71182140428046    7.24065273432356    8.73683263731455
C         1.50382600666140    8.41540908718868    9.37803990639402
C         1.38090937643490    5.88892657663811    9.29563501990434
C         0.90918651010811    8.54643357558230   10.74918374322139
C         2.57868477733579   10.29913399026491    3.56614183180136
C         2.15379117270163   11.38873244519357    4.24725438195563
C         2.63379480518349   10.20240687664295    2.06995510383621
C         1.69158997437213   12.66372331251842    3.61080255066188
C         4.29231434600654   12.09678558159525    8.42652118933169
C         4.04466900231879   12.09445828707237    9.79481319691413
H         4.30856373153442   11.21865302573095   10.36764625822938
C         3.45249354175709   13.18758796516494   10.39635911699318
H         3.24850378505822   13.16648909561754   11.45576324853174
C         3.10568640618518   14.29987842437750    9.64538940870192
H         2.62626186856186   15.14603893033804   10.11277881910461
C         3.36559702186155   14.32587047834581    8.28597841951235
H         3.08820765450087   15.17993555615880    7.68651327014187
C         3.97139123127543   13.23406470399395    7.69195200350010
C         5.09396502857729    6.55781907980004    5.35091718916150
C         5.45723844668584    6.73349876736400    4.01801953378267
H         5.86377836529351    7.67820103366371    3.68604474924655
C         5.28971340001452    5.70198036179910    3.11292687001707
H         5.56565771503336    5.84965564689488    2.07955080902762
C         4.75805417806091    4.49206564820457    3.52671152690783
H         4.62046578530121    3.69081433303017    2.81588029725501
C         4.39764473698118    4.31248877543575    4.85224862671230
H         3.97812063452367    3.37293911041953    5.17932731480507
C         4.56041149156741    5.33824429508413    5.76433714653647
H         4.26758010940867    5.19202117041341    6.79419644000569
C         6.68064418393613    8.82516582737746    5.94013028660485
C         6.51540518469045    9.77959224148621    4.93650681758579
H         5.51710556033054   10.00971413499225    4.57435864801059
C         7.61146346164337   10.43968991057785    4.41350904009843
H         7.47809765498947   11.16247005966914    3.62183685182476
C         8.88042022826311   10.17404936112473    4.90653579396934
H         9.73584780042880   10.69389003210954    4.49990948275912
C         9.04553677503172    9.25096286481617    5.92520111946654
H        10.03218589366595    9.05191992133028    6.31812193607241
C         7.95261291059043    8.57295633701218    6.43938437678245
H         8.08831562686682    7.85535986212636    7.23535204027147
C         5.64728307254657    7.16261665485767    8.07473497120538
C         5.07613288458805    7.60564072057987    9.26354552286996
H         4.40329096314211    8.45879493719901    9.25227131015944
C         5.35268767689839    6.95820643224116   10.45451934616542
H         4.88445633165523    7.29364759688105   11.36786643880013
C         6.20977752364804    5.87008082770100   10.46654486270616
H         6.41586745656803    5.35649171929154   11.39349787303486
C         6.79386514455361    5.43252454189887    9.28790834631622
H         7.45941195880982    4.58173343379859    9.29739004333644
C         6.51281549858483    6.06919323914848    8.09320758569570
H         6.94286911576226    5.70912157997453    7.16778365211978
C         6.95744741513319   13.70443537348575    7.58470148548652
C         7.64299836343471   12.49833195632530    7.47573221089009
H         7.72475488369035   12.00618399588584    6.51731117167114
C         8.19926723891962   11.93049534435979    8.60662647617122
H         8.72164567449077   10.99013612547246    8.52486037360068
C         8.05801617602169   12.55255617797486    9.83629389205050
H         8.48075853406779   12.09934271936687   10.71992341477165
C         7.36350894606071   13.74832962210215    9.94234001161822
H         7.24488272901936   14.22357432166193   10.90409078760278
C         6.80238039292592   14.32695466981319    8.81993004799229
H         6.23799621556688   15.24582185391795    8.89953598300966
C         7.01219770740057   14.02700110378478    4.62846271856860
C         6.32510681411463   13.76141376392347    3.44781907091588
H         5.24717388444990   13.68538884068411    3.44899844128455
C         7.03697567469170   13.57939303015152    2.27505515329629
H         6.50742853368366   13.36464886511184    1.35967303925117
C         8.42075585739929   13.66575882557266    2.28168285368766
H         8.97310558741028   13.51835573358697    1.36598394626815
C         9.10000994748544   13.93846657561530    3.45977480108344
H        10.17755194578071   14.00628256344201    3.46001635662054
C         8.40010505490794   14.12531005391277    4.63759668914084
H         8.92181295387053   14.33547369071881    5.56099435539468
C         5.79838872499887   16.09759638842099    6.26201119022192
C         6.78897654872156   16.92537922476288    6.78123161367805
H         7.70921245588311   16.49925272725030    7.15556101112689
C         6.58118115622227   18.29184334493074    6.81511788998876
H         7.34267701383671   18.93949016803981    7.22258383168119
C         5.40013431262953   18.82970131354103    6.32627083499495
H         5.24324057964609   19.89704213215091    6.35898049304155
C         4.42394569947679   18.00408830512356    5.79169486649615
H         3.50926900825864   18.42553848144650    5.40386638763303
C         4.62098355121357   16.63540802588106    5.75366971381056
H         3.86971146345111   15.98000293812036    5.33369936505823

