41
CSD_code = QEFXAA | q = 0 | S = 0 | Stoichiometry = C12H20I2N2S4Zn | MND = 4
Zn        7.33993037462682   -2.14882319310845    3.05145867512065
I         8.22471360286886   -2.93324329610348    0.82638015591710
S         9.19376779499906   -0.23427814763653    3.79246070671212
S         7.04423752360210    1.84836996131693    4.01307808249200
C         8.09904616391613    0.57451192049125    4.74824312056551
N         7.94135680452099    0.37872491264169    6.03881769817663
C         8.84360084729140   -0.44679072972631    6.81889158124292
C         9.59069433278655    0.43550243780398    7.81708709491320
C         8.59715705709041    1.16593793987020    8.71536936451306
C         7.61467991206465    1.96094104409675    7.85956150043702
C         6.93957782532019    1.03158870387102    6.85214159057299
H         9.54177571173740   -0.95170826232867    6.15086067614142
H         8.25107798732513   -1.19832427418270    7.34803532873252
H        10.25617860014656   -0.19075910730649    8.41080845292691
H        10.20073824531546    1.15912385757559    7.27177782501310
H         8.04925714162387    0.43864689887657    9.31777189223203
H         9.12757212517845    1.83528028622425    9.39342405578066
H         6.85155929498383    2.42684120024948    8.48261795800778
H         8.14425720687559    2.75023036971039    7.32164923707038
H         6.38340157638732    0.24779878002158    7.37774959624896
H         6.24310464750402    1.58345827616480    6.21878531069422
I         6.45469936327882   -2.93290186029879    5.27754528123146
S         7.63509695406272    1.84860453927073    2.08986521245814
C         6.58068503711950    0.57441948371718    1.35482500967319
S         5.48592451064845   -0.23431105585867    2.31066183743675
N         6.73838525900378    0.37860172843574    0.06424697629548
C         5.83619845964389   -0.44692242363409   -0.71588936741843
C         5.08906627784554    0.43539468964047   -1.71404260588299
C         6.08250576927255    1.16613543689390   -2.61219343518654
C         7.06510360222047    1.96099079892930   -1.75638078007112
C         7.74015203529942    1.03148579024542   -0.74907101016856
H         8.29626143585376    0.24771150530346   -1.27477122147759
H         8.43668579416613    1.58325414013237   -0.11570058876287
H         7.82825545273783    2.42682341523845   -2.37945591277074
H         6.53564899605497    2.75031809009052   -1.21840984128216
H         6.63033406791181    0.43905338511074   -3.21490728666454
H         5.55195602908232    1.83566112955718   -3.28996543872396
H         4.42371083948763   -0.19088105163554   -2.30789759383453
H         4.47888157476126    1.15884698190488   -1.16866856473964
H         5.13800723316451   -0.95189341741761   -0.04791956786451
H         6.42875653221871   -1.19842088417229   -1.24504100575116

