81
CSD_code = QEFYIJ | q = 0 | S = 0 | Stoichiometry = C28H32N10NiO6S4 | MND = 6
Ni       -0.00003336523621    0.00002423847822    0.00002954267831
S        -0.76143586400565    4.21362870817696    1.02925636726305
S        -0.83972448491241    2.74894051159481    3.81786714874257
O        -1.41903140606762    4.03487121673213    3.50054889446815
O        -1.54205252611787    1.89038732503641    4.72942477292626
O        -1.63008946973628   -0.54138490444819    1.75973059286217
N        -0.38434409471491    1.83554213072787    0.15600629873157
N        -0.34417834680796    2.61812064832907   -0.92857405660203
N        -0.59007607614882    1.89096817087890    2.45670218755629
N         4.58826210978473    3.69486288807111    6.00107888588516
N         1.51104575901462    0.26378264624463    1.26176937465688
C        -0.50580598772710    4.92455702533341   -1.71519884384817
C        -0.50697441150417    3.86391911137521   -0.67966344699333
C        -0.57082282910524    2.47971910287722    1.30115929205915
C         0.80494892282385    3.01128825592348    4.45555300153793
C         1.60109526816520    3.99869348653448    3.90617265091477
C         2.87156871129713    4.21138110907531    4.40026189747974
C         3.35446949387309    3.44099012399518    5.46369145216040
C         2.53584470321320    2.44235845217568    6.00311130757065
C         1.26999635202343    2.23101785808932    5.49693472469129
C         1.57715862006722   -0.37261157316283    2.42709683075867
C         2.51706742401120   -0.06998479163338    3.39733791668873
C         3.43434252359316    0.93679834516111    3.15358604983754
C         3.36882638849019    1.59581106298839    1.93874445594018
C         2.39552436857046    1.22985859516393    1.02440608927441
H        -1.47056366489678    0.28593027816261    2.25122947050750
H        -1.25409737489340   -1.25163018958226    2.28704213896446
H         5.22608347003737    4.27915676525437    5.49098556932935
H         4.98702037060661    3.02497309120527    6.63412892402464
H         0.26742713086666    5.65929356011049   -1.49876385580077
H        -1.46427315328381    5.44043591036395   -1.72185788119968
H        -0.32537339250145    4.48588994954829   -2.69282238928169
H         1.20905397530519    4.60665242922192    3.10618680275403
H         3.49693198823410    4.98693741406419    3.98265553579780
H         2.90169097011434    1.84781914072060    6.82783705309777
H         0.61421267451514    1.47848210796946    5.90435481943093
H         0.88099375318323   -1.18560113465115    2.57611552799934
H         2.52747839720678   -0.61915532666667    4.32508859882992
H         4.18447522413135    1.19370007250673    3.88536880577310
H         4.06419905245723    2.38307348130296    1.69431167003198
H         2.34579853270068    1.71038530208544    0.05814930198476
O         1.62933380105415    0.54156300603873   -1.76031651890867
H         1.46943230926231   -0.28597233943236   -2.25131704697437
H         1.25295899464497    1.25167674640955   -2.28749499819515
N         0.38425118912777   -1.83563962373928   -0.15577122875757
N         0.34395697318037   -2.61808160227450    0.92891404350014
C         0.50660851863155   -3.86391959768091    0.68012515305503
S         0.76123269881904   -4.21379751883967   -1.02873965488232
C         0.57065173981362   -2.47995172861953   -1.30084205258726
N         0.58982356186639   -1.89132188883769   -2.45646505239107
S         0.84002189137644   -2.74948480460042   -3.81739262592028
O         1.41888820519683   -4.03552505923209   -3.49964043811440
O         1.54307274699181   -1.89136880809008   -4.72881340353237
C        -0.80446513421703   -3.01153072953750   -4.45564523485857
C        -1.60052878279296   -3.99937795381337   -3.90696053208374
C        -2.87097122407937   -4.21184045587465   -4.40118484261381
C        -3.35396785843960   -3.44067328578270   -5.46400508230655
N        -4.58778496323784   -3.69416153705222   -6.00146082574339
H        -5.22553460468329   -4.27897086901657   -5.49189235986022
H        -4.98653118781726   -3.02401058735331   -6.63420509879874
C        -2.53543877440850   -2.44158323511183   -6.00270239815312
C        -1.26958517501568   -2.23052425790589   -5.49642432781945
H        -0.61401790491171   -1.47741718402737   -5.90309955284895
H        -2.90142405548912   -1.84634245615773   -6.82684941293885
H        -3.49618522791514   -4.98787820257495   -3.98426798793874
H        -1.20826234824306   -4.60803833074001   -3.10762622527487
C         0.50535985429584   -4.92448904402431    1.71572253308673
H        -0.26793963753238   -5.65915244856966    1.49927348902285
H         1.46378138697455   -5.44045418036228    1.72240817183055
H         0.32495877822771   -4.48577461369666    2.69333085553520
N        -1.51147668482329   -0.26364153306315   -1.26161522134175
C        -1.57817692305339    0.37359899448073   -2.42645579846141
C        -2.51778577940060    0.07087496207218   -3.39696023621364
C        -3.43422641462582   -0.93686419399502   -3.15397790824863
C        -3.36816671514349   -1.59670448639267   -1.93962482507540
C        -2.39515030222885   -1.23063354298479   -1.02500702605887
H        -2.34508644033070   -1.71187727586014   -0.05913344145637
H        -4.06309320341421   -2.38450445539266   -1.69564753820418
H        -4.18441143017628   -1.19355027583638   -3.88578592550656
H        -2.52855338586996    0.62062849034457   -4.32436582828161
H        -0.88220822818924    1.18683331173807   -2.57512707516215

