71
CSD_code = QEGCAJ | q = 0 | S = 0 | Stoichiometry = C27H36Cl2N2O3Ru | MND = 5
Ru       -6.62063950226344   -2.09103545645953   -3.10852686412695
Cl       -7.94383452455708   -3.91947469286815   -2.73994972492552
Cl       -4.99890073970835   -0.59336217055233   -2.51135893272993
N        -8.36280153924477    0.24277609315679   -3.87878897899901
C        -9.18814998553269    1.33687281931692   -3.30685401612290
C       -10.60889346937245    1.30620499553412   -3.87111775588803
H       -11.12462891246471    0.39050651765902   -3.60033445131571
H       -11.17306688623337    2.14495680182962   -3.47036472693507
H       -10.58548396564737    1.39641091040264   -4.95470154451208
C        -8.58299710514322    2.70523169688755   -3.60963222205114
H        -7.57878402715822    2.78544796192603   -3.20620428300396
H        -8.55495633748890    2.88625574957904   -4.68081205614870
H        -9.19939436025175    3.47265584335285   -3.14685386574599
C        -9.14077416588625    1.02464153144280   -1.80326626415464
H        -8.41931347756173    1.67796614995028   -1.31161324004361
H       -10.11085760172000    1.17076203516646   -1.33245143019868
C        -8.66972317669352   -0.43651853565255   -1.70331159155966
C        -9.86774753115720   -1.38598905264132   -1.54729101153423
H       -10.58553801803862   -1.25238282352310   -2.35148517960905
H        -9.53827364401014   -2.42247792109121   -1.55821896156545
H       -10.36494413968554   -1.18891518894927   -0.59952249486161
C        -7.69654842008799   -0.67638453253434   -0.54652733070035
H        -7.32157186330085   -1.70758484724082   -0.58948932189518
H        -6.85227332924866    0.01091546123466   -0.59726281712160
H        -8.20210354190099   -0.54090781564494    0.40805227133283
C        -8.00240783547737   -0.69081536138076   -3.04180380604686
C        -8.11449514030274    0.21192646298595   -5.28442850130655
C        -8.94714540823787   -0.57402701061812   -6.09528115828654
C        -9.94411428835550   -1.53439428032375   -5.51840560770572
H       -10.14138667690742   -2.32734187478724   -6.23519898726440
H        -9.54768077730204   -1.98652190905039   -4.60924868662719
H       -10.89194034102348   -1.05167743615375   -5.29114299633476
C        -8.77461881891706   -0.53070701830853   -7.47075815431148
H        -9.42124472273773   -1.12924898509750   -8.09612708118614
C        -7.77769253675953    0.23379333224860   -8.06056537746130
C        -7.59273853992480    0.24792644500811   -9.54593203794616
H        -7.23583284481931    1.21881860761350   -9.88195056717313
H        -6.85118263909641   -0.49818945490014   -9.83364599436311
H        -8.52350170803089    0.01412027743114  -10.05693086284152
C        -6.90727153243391    0.92051254623261   -7.23071241450922
H        -6.08118147567300    1.46550637514920   -7.66407574833689
C        -7.04555179585196    0.91240158413870   -5.84782243491423
C        -5.98551709966050    1.58468743110541   -5.03102400946464
H        -6.03175823304821    1.27715805116542   -3.99110140544854
H        -5.00929967940774    1.29955910462054   -5.41910593538072
H        -6.06034223771585    2.66910617497159   -5.09583034283292
C        -6.30175610051932   -2.28109601709338   -4.96526188359293
H        -6.88225263391424   -1.86820610836776   -5.78770231157547
C        -5.16043185858213   -3.02182736590335   -5.36676053663359
C        -4.74786940511635   -3.08343255233018   -6.70090070814919
H        -5.31095806983469   -2.56740069317723   -7.46385761332011
C        -3.61178854039625   -3.79587015343937   -7.04784626927992
N        -3.19867835421299   -3.83958489761091   -8.42017389456076
O        -3.85053761098039   -3.20818366980446   -9.22830929899907
O        -2.22058765940305   -4.50426482432936   -8.69797386537218
C        -2.86431864560984   -4.46955643555108   -6.08378987089138
H        -1.98295587039866   -5.01300644666493   -6.38607716042371
C        -3.25757356982546   -4.43576813846302   -4.75977848014352
H        -2.66440231768373   -4.96211009189637   -4.02941924386905
C        -4.39182772872498   -3.72079380889439   -4.38625658830496
O        -4.86904036293855   -3.60032553056684   -3.13840591937200
C        -4.33598855145058   -4.36338719153571   -2.05243615556705
H        -3.23964256362481   -4.28795595799448   -2.06968743939376
C        -4.86808274027241   -3.71580052782752   -0.78036089546143
H        -4.57935449047344   -2.66472141154236   -0.74439813676896
H        -5.95666340191800   -3.80280093049578   -0.75888903833335
H        -4.46546515193448   -4.21738514110432    0.09518800585764
C        -4.79126990395063   -5.81627869471695   -2.16673096690546
H        -4.42832382086663   -6.38565851440654   -1.31572780530381
H        -5.87948716000226   -5.85219536546959   -2.17853858795092
H        -4.42293889120951   -6.27655412312340   -3.08082643135451

