82
CSD_code = QEGDOX | q = 0 | S = 0 | Stoichiometry = C41H37CuN2S | MND = 2
Cu        6.75694089618491    2.57764658450940    6.35923226490725
S         7.61709890439677    0.64747621278353    5.77655216102056
N         6.22526289021942    5.01560346715385    7.95245960728305
N         5.12902385519560    4.96904239714133    6.11309682515115
C         6.87741488845546    0.39053391665177    4.13132585647289
C         7.34816987850829   -0.89412167338683    3.46734146993658
C         8.23742389582069   -1.80182238317439    4.00210023516986
H         8.66017356468356   -1.62044995696895    4.97738205801988
C         8.56987220849841   -2.93281023441054    3.27075978838519
H         9.26624385283508   -3.64814541287255    3.68351202243797
C         8.01893811802156   -3.15063478139450    2.02098145390249
H         8.28437337598753   -4.03435260540179    1.45862872980496
C         7.12365241909126   -2.23751584777008    1.48177004608526
H         6.69059122143550   -2.40429965549998    0.50518413386829
C         6.79156197608017   -1.11303044314995    2.20712506869430
C         5.83634025597320   -0.02706113452179    1.76600098945023
H         5.40419059705723   -0.20471386116899    0.77983913936623
C         6.64343517682885    1.24092549935606    1.85280023440047
C         6.89251532459463    2.10908173576068    0.81037634897383
H         6.46105080472409    1.92800216344244   -0.16478873251134
C         7.72380096585375    3.20054835093446    1.01673311755423
H         7.93482397715231    3.87611990464336    0.19955282550306
C         8.29982046371483    3.41015613148140    2.25567129930948
H         8.96960065437761    4.24518283389787    2.40480369642828
C         8.04100300773022    2.54350463740385    3.30669115279175
H         8.50587267536184    2.69371648245029    4.27219633708094
C         7.20810862706428    1.46204006486788    3.10941895375317
C         5.36596831865081    0.25831346987014    4.13222532118274
C         4.55232830976276    0.26377199920663    5.24587957321698
H         4.98822958958236    0.39564782937577    6.22708486261694
C         3.18787799885959    0.06706611716203    5.09748518581453
H         2.55249224931289    0.05073581299747    5.97165805394066
C         2.64029959309328   -0.12657761981563    3.84279296218146
H         1.57637364306122   -0.28608146232053    3.73494851097720
C         3.45537045662459   -0.13953753901262    2.72019084093071
H         3.03362221509575   -0.31151278690032    1.73957054904531
C         4.81395551720992    0.04498754924401    2.86906464642018
C         6.01212322951706    4.26454265006155    6.85215092304222
C         5.48824646856290    6.16817299247212    7.90227085826492
H         5.51939264343509    6.89798510022187    8.68500672062479
C         4.79535850212172    6.13831237221977    6.73887545188025
H         4.10469688102036    6.83655925816934    6.31274217935594
C         7.10572026925279    4.66322452716099    9.01092623671471
C         6.61692781414232    3.92480167208861   10.08672069262432
C         7.48926271882006    3.60777569406642   11.11585974237993
H         7.12542070730120    3.03360250160711   11.95544649824006
C         8.81908988915370    4.00431837272207   11.08606784109497
C         9.27860244133806    4.72822094643735    9.99430157162383
H        10.31494848154837    5.03070068966674    9.95640556002749
C         8.43861989038107    5.06517179930332    8.94521145225668
C         5.18974407324112    3.47010379640566   10.10154439299572
H         4.50757111060785    4.31194629722754    9.98431800167810
H         4.95871444509931    2.96071834040184   11.03264520063089
H         5.01621449241778    2.77975063670436    9.27545806457165
C         9.75179806454571    3.62782063072332   12.19500743889092
H         9.21685441182383    3.52225610171722   13.13568942465405
H        10.53620041051710    4.37146471349607   12.31324713208291
H        10.22482520634135    2.67247216643876   11.96680106775004
C         8.93963521440534    5.81861627589614    7.75130413681380
H         9.98540574511627    6.08411842974604    7.87616225161895
H         8.36381508567610    6.73025808519833    7.59203635055209
H         8.84241687602086    5.19943260472200    6.85895173347020
C         4.63765426353806    4.53042097846303    4.85356522745046
C         3.51335410577737    3.70978202690285    4.81254877274644
C         3.07330974583712    3.26179556218000    3.57726873975355
H         2.20757464854102    2.61872040444238    3.53128156401530
C         3.73067376663927    3.60937261083084    2.40685677019788
C         4.83551639876348    4.44754135671950    2.47932706948888
H         5.34770853056893    4.72911813364617    1.57161381578257
C         5.30446869405985    4.91972823007605    3.69310259662011
C         2.81320625612735    3.32973996120552    6.08089450965186
H         3.48185483456979    2.74753628569220    6.71465212739835
H         1.93330946069180    2.73163390662181    5.86477282251261
H         2.50793162929554    4.21639794577526    6.63718600180625
C         3.27289973877754    3.08481837942828    1.08247382880653
H         3.26438128131248    3.87548213365200    0.33489332563899
H         2.27885260941123    2.65248401857513    1.15613670353519
H         3.96105206902158    2.31148003887590    0.74477754354758
C         6.49401321708385    5.82610274742179    3.77786507502341
H         6.89754079468340    6.01601943755072    2.78805811586209
H         7.27142452139329    5.36848738739177    4.38869408676563
H         6.22304599439410    6.77865603711023    4.23433278996907

