109
CSD_code = QEGLOG | q = 0 | S = 0 | Stoichiometry = C51H49ClN6PRe | MND = 5
Re        3.74445414539650    0.95492954768452   12.46235192800488
Cl        4.37595709126818    3.33424481584115   12.64851766856086
P         6.10667622767103    0.73562284719794   11.88485591410688
N         0.82048424921236    2.15244504451423   12.49993257299299
N         1.43004731198802    1.57527755524610   14.47457182391781
N         3.30590530992804    0.73909065551482   10.73870961090997
N         3.20579647997256    0.29274303784112    9.61205637298404
N         4.09741401973926   -0.15430345260867   13.83765713230096
N         4.49569917272907   -1.05032879358466   14.55107242555720
C         1.81650473850226    1.53854843271049   13.17699256838323
C        -0.16196348524358    2.56886854051107   13.35877440712800
H        -1.04124715793153    3.07212272350479   13.01198923961316
C         0.22143098436903    2.20327780278080   14.60200528829269
H        -0.25329863355908    2.33123798515399   15.55332829119911
C         0.69815128894609    2.30487855914999   11.08953513374509
C         0.92136312773001    3.55389534228140   10.51299208639026
C         0.71922428395543    3.68977692648790    9.14605442963394
H         0.89496459780292    4.65101456155476    8.68502250257558
C         0.30665964508712    2.62397034110272    8.36293199782043
C         0.09533535326149    1.39145907553665    8.96771087563254
H        -0.21844068259697    0.55338927929903    8.36256688485400
C         0.28061348757457    1.21177652768919   10.32796673770048
C         1.38615237498022    4.70508960016957   11.34662900258946
H         1.53392607722832    5.58892541165832   10.73209465998177
H         2.33186155048046    4.45565828719137   11.83087944804966
H         0.66671313536182    4.94155814842588   12.13027846096463
C         0.09293296651413    2.77979732644506    6.88908338409510
H         0.24558650978768    3.81019992784145    6.57953918625042
H        -0.91707002585522    2.47665271713662    6.61653118748055
H         0.79277206179125    2.14770349835877    6.34433056064319
C         0.05218426373105   -0.12069018443463   10.97401863243036
H         0.99453131231952   -0.49723848653318   11.37729258316416
H        -0.32745316311197   -0.83516734257753   10.24938815124135
H        -0.65981227313063   -0.03864195118662   11.79516267194147
C         2.10015553680384    0.94843336886797   15.56382846869771
C         3.01841651418079    1.66863109782821   16.32497443096350
C         3.67108630767129    1.00716660256171   17.35647534619866
H         4.40014963260367    1.54737086063644   17.94383755638234
C         3.41703056989126   -0.32497604560877   17.64079319955449
C         2.47029346275835   -1.00508649658069   16.88498780820762
H         2.26610529073982   -2.04396803677539   17.10048450075018
C         1.80187009081064   -0.38653470322219   15.84314454941451
C         3.29085136040928    3.10784431500303   16.02553854026593
H         3.67860083873967    3.22339507701552   15.01212537368015
H         4.01968278357019    3.51658231708947   16.72029238825955
H         2.37582500850600    3.69688612605854   16.09151477699124
C         4.14539108682238   -1.03750457496436   18.73855131184416
H         4.81752504354320   -0.36481037256295   19.26493082573704
H         4.72779877213260   -1.85923704869652   18.32416136255226
H         3.43994391564057   -1.45843217063911   19.45374327737312
C         0.80201497051464   -1.12693532353475   15.00841543057934
H         0.77802937890706   -2.17716753362309   15.28531779407202
H         1.06647280201970   -1.04978714191732   13.95436769032247
H        -0.19604541702944   -0.70697626688602   15.13836871165679
C         3.34090327060810    1.03856611290923    8.45669905101247
C         3.59872265512187    2.41241700245199    8.48161808956842
H         3.67520000792637    2.91664913104858    9.43394973413783
C         3.75761194076472    3.10110499520797    7.29909908280981
H         3.95670982377245    4.16273362987050    7.32140060598051
C         3.66879156690776    2.43854209768915    6.08439841965686
H         3.79808032291130    2.98222232934719    5.15993147797477
C         3.41328956195302    1.07572879310946    6.05743455385903
H         3.34423066568051    0.55974511482319    5.10996401364486
C         3.24581848234602    0.37398260890759    7.23390544038081
H         3.04798049356683   -0.68698974303713    7.22882297526070
C         4.31710718049632   -2.40100951650281   14.30786107880951
C         3.46710439582633   -2.87802236181675   13.30667025041391
H         2.95198315676455   -2.16225492932439   12.67675056793804
C         3.30929815242601   -4.23578902583421   13.12947456070501
H         2.64781429804432   -4.60320755282915   12.35752780427599
C         3.99923709573156   -5.13076236296038   13.93357762445097
H         3.87596904927456   -6.19408473834003   13.78887649642230
C         4.84960260242178   -4.65926044839923   14.92232910225914
H         5.39003837464349   -5.35833249823415   15.54463393356095
C         5.00730969688982   -3.30248706596203   15.11778766008081
H         5.66816248095755   -2.91892101586673   15.88018759148771
C         6.55565644902333    1.32887658359771   10.22753035858363
C         6.62619203858130    2.70613932450414   10.02431152781628
H         6.48712944555253    3.37808992670642   10.86065772111206
C         6.85797668504627    3.20795392771050    8.75851041665948
H         6.91689440250942    4.27599257881745    8.60763664850179
C         7.00203593091543    2.34473069486556    7.68420984419908
H         7.17308145226948    2.73820343206556    6.69309971639324
C         6.91724209405120    0.97697856369315    7.88007414374793
H         7.01979904520671    0.30301497686570    7.04209820013140
C         6.69383726880492    0.46591705066126    9.14591792440566
H         6.62833976095238   -0.60275691333651    9.29431105734479
C         6.69005316483385   -0.99063446509612   11.92103401654029
C         5.86031889499277   -1.94567395970201   11.33694778625232
H         4.93439102064320   -1.62573701558804   10.87151127501573
C         6.20268517587469   -3.28313196534037   11.37635601398941
H         5.55596118101694   -4.01938349334166   10.92289941254523
C         7.36431664969290   -3.67948564710351   12.01927058073857
H         7.62458308479466   -4.72653275329492   12.06664685570964
C         8.18500147388107   -2.73486426359922   12.61136016000235
H         9.08663859411407   -3.04475180773638   13.11974849328372
C         7.85412665283339   -1.39167769059092   12.56255203086531
H         8.49569320506517   -0.65897340514751   13.03199465220410
C         7.26861894596346    1.58670531592659   12.99236696972169
C         8.50232926360143    2.05250718719222   12.54786031543918
H         8.78846169561837    1.92364262238481   11.51252324722234
C         9.35812125835479    2.68308107049571   13.43246475236222
H        10.31380518926533    3.04823022645695   13.08441049730388
C         8.99225047202019    2.85052793294227   14.75853975316551
H         9.66195182031474    3.35162495068195   15.44239619510212
C         7.76902947029361    2.37887896781590   15.20510313918257
H         7.48213885336829    2.50861097506458   16.23842419978136
C         6.90859379981915    1.74700309039571   14.32668472290329
H         5.94912599059388    1.38324506678316   14.67307009248660

