96
CSD_code = QEGLAR | q = 1 | S = 0 | Stoichiometry = C51H38ClO3P2Ru(1+) | MND = 6
Ru        3.54191124903484    9.88771772006648    5.65033941790469
P         4.19077032883950    8.81733800880825    7.64082669560429
P         3.40147747619074   11.07261177837239    3.62760114337785
Cl        4.98211441670405   11.59979925367362    6.42271060479356
O         4.96034998577182    8.74316659934559    4.66451888163478
O         2.44394315359514    8.34227134838077    5.00004421640112
O         1.07929498592139   11.13045466268957    6.77470993048934
C         4.49062941920209    7.68832029095705    4.16193621689692
C         3.07188149072108    7.45545679472518    4.35728938881972
C         2.45611675874545    6.27195340534395    3.82039697727981
C         1.08590497707330    6.06452019080242    4.01256000277284
H         0.52946769340814    6.80806542206388    4.56309765545615
C         0.47372524810832    4.93988242742440    3.50926354514540
H        -0.58272849732008    4.77916246935250    3.65661231206893
C         1.23241617866900    4.01085581107763    2.80756925946406
H         0.76180976863645    3.12499409705375    2.40917679600954
C         2.58563826030198    4.20767455297782    2.61180313890228
H         3.13304770913102    3.46125241236992    2.06018891853859
C         3.23952894830926    5.33834267124702    3.10803210362749
C         4.66520728912961    5.57218399998370    2.90804353794205
C         5.48349220421908    4.68115275747606    2.20881157320753
H         5.07138295650715    3.77512860096563    1.79626846148446
C         6.83056120036500    4.92746897226170    2.02365273548552
H         7.43017330254908    4.21534629643759    1.47756721621322
C         7.41875200181292    6.08047680634572    2.52946093181828
H         8.47004297124089    6.26756224024406    2.37725994617949
C         6.64265758181298    6.97842055663358    3.22560204016314
H         7.06920049324790    7.88534186250544    3.62786510986472
C         5.27826383991927    6.73641704461327    3.42245888054163
C         2.06927702286245   10.71917528003321    6.39184726957096
C         3.87732854153678    7.05583428237443    7.32384822674400
C         2.55948169803667    6.59754087699424    7.35905171352483
H         1.77202757983773    7.26748950726713    7.68217875329625
C         2.26849445120523    5.30274235274501    6.97679870732114
H         1.25111933127634    4.94460829043383    7.01989328898925
C         3.28014818040451    4.46583294731650    6.52623706698422
H         3.04658039669702    3.45887353009142    6.21635129185188
C         4.58500670017109    4.92333761260493    6.46827520312673
H         5.37220687514168    4.27625799887020    6.11118351566970
C         4.88763785159564    6.21646345098596    6.86339709085633
H         5.90990897389488    6.57000054152561    6.82865337311507
C         3.28567479233944    9.25676000921936    9.14227360666837
C         2.89452909481796    8.31083242949846   10.08609201320068
H         3.09996210568658    7.26169839844208    9.92336967149530
C         2.24556305863212    8.72364858532853   11.23630857250188
H         1.93830006660432    7.99146223346087   11.96767555649034
C         1.99493740398067   10.06945744632419   11.45247198313432
H         1.48660080617494   10.38314123729127   12.35119611254648
C         2.40083461962696   11.01312399103194   10.52133652281663
H         2.21481223113988   12.06159502911551   10.69574843420288
C         3.04642382200522   10.61121272072569    9.36686551829454
H         3.38123484066244   11.34001442144731    8.63730307406256
C         5.93863367070913    8.92657078617761    8.11177233868277
C         6.92113933462719    9.01820837758336    7.12887764176889
H         6.63677616526348    9.05488341164380    6.08642442051763
C         8.25467641068287    9.08093973100298    7.48566977613292
H         9.01397688771861    9.15803358109635    6.72182857468840
C         8.61593645612041    9.05728635002295    8.82316565030234
H         9.65691868242710    9.11630835890158    9.10154833851327
C         7.64100374316781    8.96792897128067    9.80323765604482
H         7.92131311094834    8.95375430718899   10.84544420698577
C         6.30393772488993    8.90445373189739    9.45505259500776
H         5.54705077286741    8.84396131732556   10.22339573068374
C         4.92712043751923   11.69430896026841    2.86775714244868
C         4.81458938156696   12.52050840812658    1.75038954735306
H         3.83788075954123   12.79900811257924    1.38034381911251
C         5.95483973546734   12.98566758973928    1.12416970542820
H         5.86724638901210   13.62704514191335    0.26042545802792
C         7.20697109313862   12.63533082047093    1.60650660308199
H         8.09465232885679   13.00759855809863    1.11838226868590
C         7.31904056077187   11.81573853143827    2.71682576604653
H         8.29422478442060   11.55053957327515    3.09673063358177
C         6.18272855634604   11.34311576247235    3.34988852594204
H         6.26970520090574   10.72126430507765    4.22864366760512
C         2.27411057404442   12.48585010791845    3.58220459887039
C         2.33797095962493   13.37463935914087    4.65377871329461
H         3.02228562178847   13.17592606930340    5.47094383533355
C         1.53790200833053   14.50181465455007    4.66015349457740
H         1.58671888160005   15.19067505454890    5.48928576177075
C         0.67514353578852   14.74524648675406    3.60255058658299
H         0.04777945514499   15.62325517461901    3.60961705071326
C         0.61677836432494   13.86534707891491    2.53375989105738
H        -0.05220292752488   14.05907921549717    1.70885443221957
C         1.41563146141099   12.73571861123962    2.51548869147977
H         1.36801307396000   12.05087156548340    1.67960613681041
C         2.77436824631384    9.84860365498198    2.44297487945792
C         1.42851155493981    9.48416169024362    2.50043262854947
H         0.76226021692392   10.01496297577330    3.16971714368267
C         0.96034424418167    8.44978051569831    1.71412463935441
H        -0.08394494101815    8.17862883583933    1.74706495454636
C         1.83252188165340    7.75152045137118    0.88995645918222
H         1.46451072494044    6.93657099236516    0.28580589497713
C         3.17278744129057    8.09365765538235    0.84818573679719
H         3.85446330573314    7.54535499135472    0.21524768061324
C         3.64842790335448    9.13753518577859    1.62537957102367
H         4.69503238919219    9.41180275798411    1.58816294760138

