68
CSD_code = QEGWAD | q = 0 | S = 0 | Stoichiometry = C20H40MnNO4P2 | MND = 6
Mn        5.24984814927730    8.09842780415202    2.80482775864630
P         4.42069585916408    8.73154662359130    4.83963947205971
P         6.05144438731099    6.71147672073667    1.17385621293620
O         6.77933027733503    7.27531423910870    3.94640315887601
O         6.20461473903096    5.29107543290297    4.76341729816733
O         3.19517936151325    9.38484615944509    1.18111406126250
N         4.11217549725114    6.30578821134777    3.28500889643602
H         4.83699108361628    5.82435315733424    3.86781110262751
O         6.69706457754625   10.54117740855148    2.10220273864130
C         5.59285434336126    8.89745458250803    6.28690095015266
H         5.99513950388048    7.88033309596190    6.38682069010926
C         3.42527753793333    7.26524990746798    5.39847371067249
H         4.09188126745522    6.61814783226402    5.97794760607757
H         2.58597818466664    7.56086330313075    6.03115166852196
C         6.99873214229403    6.23479054550988    4.61562935051830
C         7.82356326734724    6.12422742688326    1.27352437133450
H         7.83824468155968    5.57108007248916    2.22227790080017
C         5.16443452066365    5.10486633953790    1.46660035893404
H         5.01496991982096    4.54778863886544    0.53963399757760
H         5.78512373508898    4.50589484579737    2.14099263660722
C         3.98386684569284    8.83021607625491    1.83786260455193
C         6.16464088309220    9.55719973241439    2.40768673506440
C         3.22010233812005   10.14701903319928    5.04426145227114
H         3.05437658404658   10.29773240916307    6.11663655768957
C         3.84603971946141   11.39618522279388    4.43129684544513
H         4.77382956629691   11.66194135375998    4.93100275916844
H         3.16251856406610   12.24056982615950    4.50427097300776
H         4.06859882360056   11.21536983397337    3.37884839672215
C         4.93518310358918    9.28040404839969    7.60916066755909
H         4.65610942034419   10.33173934687467    7.61821816246992
H         5.64311125974507    9.11976487775946    8.42131257445164
H         4.05137414754763    8.67669841221787    7.80848186439586
C         2.96015246715883    6.50753386872000    4.15763890338544
H         2.52016120138458    5.54087252811339    4.45363634134533
H         2.19606067598426    7.07749702558652    3.61508946683756
C         8.25068419716088    5.17118348614508    0.16135953194465
H         7.51810398596017    4.38098832943189    0.00549885312668
H         9.19690842766575    4.70458940825174    0.43259461097133
H         8.40237117410400    5.70413858295870   -0.77469725541394
C         6.75890223313010    9.82366848352687    5.95374569392063
H         7.14558855807070    9.59169872356877    4.96173831661397
H         7.55980039156482    9.69392803883751    6.68053993922906
H         6.45426663941949   10.86748995383466    5.97138918843005
C         5.75933438437724    7.01911966338445   -0.64462237439320
H         6.32442862313842    6.26982487465078   -1.20974618936469
C         3.84119122262713    5.41458909316136    2.16165073169925
H         3.14399199314258    5.90784753021934    1.47337862145496
H         3.37402467645324    4.47845402546402    2.50949609541133
C         1.87673807604199    9.86246930122665    4.37933967684047
H         2.01289447343214    9.64244097897799    3.32390684006675
H         1.24078051595349   10.74304463230861    4.45875652781144
H         1.35489280301406    9.03315112690033    4.85149148302976
C         8.37305350793206    6.15643466508522    5.28576243599355
H         8.96445025225563    5.38767964348417    4.79092871222797
H         8.25298996677584    5.87079375090868    6.32862875650758
H         8.88399132595716    7.11270976785496    5.21101885948799
C         8.79046408025600    7.29695152679396    1.40783939037545
H         8.91632876950762    7.81779949991689    0.46154836955719
H         9.76836873502899    6.94163256608403    1.73017233423122
H         8.41520633704133    8.00446914061929    2.14659783612082
C         6.26685889689054    8.41852373084522   -0.97945696793893
H         5.74484551357694    9.15377412840343   -0.36569215851736
H         6.08810796288837    8.64848854450166   -2.02855282633064
H         7.33192001540629    8.51224545080357   -0.78453892139846
C         4.28470816185639    6.90081666879068   -1.01787316533755
H         3.90896937292164    5.88912507239959   -0.88249146673557
H         4.15517463213814    7.16536731638663   -2.06637391809384
H         3.68509145806559    7.58521635129546   -0.42377580684991

