37
CSD_code = QEGWUW | q = 0 | S = 0 | Stoichiometry = C15H13CrNO6S | MND = 6
Cr        1.77590875378999    1.56328536076733    5.71035485605336
C         1.76758419411855    3.62248383794303    5.43785555134420
S         1.70362674832626    4.79528807087542    6.71140517597754
C         1.73849844752952    6.18428897254846    5.62206149085056
C         1.80008055556947    5.70344189073239    4.29987477875018
H         1.83136588454968    6.37463879223639    3.45959240799143
C         1.81411516553061    4.33238654024285    4.22375170716826
H         1.85947217266485    3.80683034080939    3.28166396053096
C         1.72026610731711    7.51153484361276    5.99176440933727
N         1.63703448659290    8.05299659560601    7.21875021213661
C         1.74382685592840    9.50934942744333    7.16681744141903
C         1.70694517753256    9.73980644851813    5.64163537444292
H         0.77248708088107   10.21264026586574    5.32139732623960
H         2.54791063813098   10.34019210970247    5.28624521999224
O         1.78881788619288    8.45848441418579    5.03827349903410
C         1.60566057681739    7.31375679671110    8.45007880809052
H         0.75798254910217    6.62780838885392    8.45768060976074
H         1.50334742981676    8.00892394569813    9.27822801607799
H         2.51874807332471    6.72984921922590    8.58237814000370
C         0.55846552581997   10.17760354577030    7.86250039076057
H        -0.37888471848056    9.76368606679521    7.49834763116005
H         0.57277942479459   11.24531669037028    7.66082154158771
H         0.60533576736183   10.03607354303055    8.93881504557485
C         3.07080524566880    9.97094212125325    7.77415321734351
H         3.11586708615790    9.72748262408789    8.83235388707213
H         3.17248557433382   11.04730715455400    7.66484502042986
H         3.90533029184165    9.48590802806887    7.27254631965561
C         0.41892957753315    1.69454512208058    6.98654867621152
O        -0.37613805922408    1.71810882697946    7.81696049561775
C         3.15404416494892    1.39358386489258    4.45944211607436
O         3.98040767749873    1.21446139497359    3.68064000544930
C         0.55561370753540    1.34865289630628    4.31146288070530
O        -0.17375278700329    1.12824376933998    3.45056557316336
C         2.96836432193419    1.71608684345837    7.13967857031385
O         3.65669380958363    1.74082892338971    8.06058562385021
C         1.78230918947089   -0.28756138183038    5.92456765275194
O         1.78496541652371   -1.43315629514646    6.05285636708630

