96
CSD_code = QEGXAD | q = 1 | S = 0 | Stoichiometry = C46H43ClNOP2PdS(1+) | MND = 4
Pd       11.62395357689101    8.74077698026169    9.68981727964807
C        12.48912217374331    9.05494701090226   13.76873675275704
H        12.17845652116646    9.07945830991035   14.79653767611826
S        14.14361742503919    9.26840410937901   13.40943303689795
C        13.78638517618339    9.09399683082094   11.68439609449347
C        12.42847336363507    8.88510091157763   11.45364855747391
C        11.70831929820067    8.86887856694032   12.66505328223348
H        10.63884797385219    8.72142254002840   12.72584259844565
C        14.73710974265713    9.13067150812894   10.66702966808344
N        16.04665614424597    9.32548263701097   10.73869484904751
C        16.67405816541683    9.26651947984876    9.41269571618253
C        15.45003458145950    8.92059860555214    8.54113158311422
H        15.28266402458346    9.65168387685233    7.74584370518120
H        15.52558885087012    7.91972312864034    8.10472570435993
O        14.31790202019996    8.93816321808650    9.41593240570781
C        16.78917696109873    9.58651921496599   11.94060255166312
H        16.72755467918434    8.73750274571959   12.62355805285402
H        16.39918803193236   10.47187849886783   12.44582336771925
H        17.83071805229730    9.75617846127457   11.68527105706654
C        17.72949221801056    8.16422647351436    9.36710407405791
H        17.31308161828860    7.22572896910191    9.72693398264190
H        18.59084681791090    8.42028607846128    9.97752865445599
H        18.07117905890924    8.02943472561852    8.34461126911656
C        17.26645311115167   10.62416060424736    9.03786824630084
H        17.65932527509408   10.58303276775283    8.02571231976580
H        18.08121668403008   10.89401584180001    9.70399208311093
H        16.50537943957749   11.39894322828303    9.08825018968058
P        11.29694133776218   10.97541516030986    9.65664358140731
C         9.66980937978385   11.50602832347291   10.23347832921293
C         8.66552168317633   10.54314576766120   10.27522263107538
H         8.89346873188723    9.52800201351643    9.95494039903521
C         7.39279461168498   10.88864702323249   10.69179007365252
H         6.61097729735103   10.14466009049847   10.71900041944371
C         7.12254228267618   12.19404301641617   11.07016660875396
H         6.12969713760416   12.46663392254348   11.39401878214395
C         8.12328153248930   13.15363003950477   11.03668240192442
H         7.90817344478047   14.16863630301042   11.33541082178280
C         9.39833386175041   12.81616969550204   10.62148530383993
H        10.18479377937778   13.55912141402147   10.60911388387451
C        12.47876451895599   11.90014917051763   10.68892798895794
C        12.22129348198081   12.07036740946548   12.04702626780159
H        11.26423270627145   11.76719195086760   12.45009904563480
C        13.17909146046671   12.62644845313727   12.87403382123883
H        12.97039929663815   12.76052511273902   13.92473050697261
C        14.40563317932912   13.01137805926551   12.35629410340559
H        15.15247724790741   13.44599436386219   13.00322291846159
C        14.66721491009220   12.84783246872481   11.00577196956832
H        15.61675308911641   13.16849406680443   10.60121171645692
C        13.71195053495017   12.28906987147529   10.17491229519721
H        13.90823606285456   12.16814931983922    9.11704287799812
C        11.54691809862887   11.67646171509651    8.00259361842808
C        12.45762624574699   11.01120220022282    7.18428991010131
H        12.91639189873354   10.09414677285390    7.55144704551689
C        12.72269078058578   11.48570102746087    5.91452264487741
H        13.41963187235089   10.96641233412533    5.27272089622559
C        12.07301582514452   12.62152097390672    5.45519160418882
H        12.26981593430016   12.98763085685915    4.45909729922090
C        11.15849121123625   13.27615914398205    6.26320841187161
H        10.64308833763689   14.15061152476941    5.89588558989635
C        10.89141577858086   12.80902882248479    7.53904915176055
H        10.16433787904738   13.31109080982473    8.16048943426179
P        11.99108059974153    6.50828747636859    9.62175132386758
C        13.53413502366511    5.90238254018244   10.37880821548532
C        13.65017792880583    5.94451597763356   11.76697036245580
H        12.79620679026517    6.24346474673850   12.36111150193594
C        14.83595198818302    5.59025508957772   12.38107930340943
H        14.91548495485073    5.62323981730296   13.45742950002573
C        15.91895948587862    5.18423618611164   11.61619313337764
H        16.84385102033979    4.90135280802518   12.09566182379996
C        15.80570521354871    5.12450393131932   10.23674752354409
H        16.63792849531388    4.77812166487513    9.64049314305444
C        14.62192124178334    5.48944624438813    9.61723860677436
H        14.53356706860188    5.43236511292622    8.54065789523625
C        12.02082772291787    5.77116664802061    7.96614583823095
C        12.70493780829258    6.49071933661444    6.98769507969156
H        13.14036302060319    7.45122515790454    7.25030327710851
C        12.78468976501009    6.00337358343984    5.69847216769805
H        13.30683375356144    6.56375712199361    4.93710309522214
C        12.17446498262252    4.79947644331929    5.37930022961844
H        12.22683624353775    4.42147581466753    4.36969349886109
C        11.48299855948417    4.09066534687629    6.34702658925554
H        10.99619101375146    3.16175793440676    6.09114540036889
C        11.40121022155457    4.57200520683873    7.64304717417356
H        10.84573678636272    4.02579525705996    8.39167243829598
C        10.69726944613983    5.66712699568128   10.56525122895128
C        10.80540186767450    4.34533966048185   10.98934003405198
H        11.70339695385010    3.78129518824863   10.77521457909395
C         9.76491199906573    3.76759133840356   11.69398125032872
H         9.84378582112884    2.74201516496488   12.02189414235030
C         8.62259467369904    4.50024702102338   11.97887462975504
H         7.81390322606115    4.04099652957381   12.52655963417949
C         8.51695180982602    5.81952834522179   11.56722542879909
H         7.62707395234592    6.38704391795132   11.79519570621025
C         9.55394009061785    6.40420060658941   10.86339850036906
H         9.48908832264016    7.44210367244001   10.52457218501174
Cl       10.44511573192921    8.59128759135779    7.74834844703989

