70
CSD_code = QEGYAD | q = 0 | S = 0 | Stoichiometry = C32H32NP2RhS2 | MND = 6
C         8.39351447577620    6.69644345439766   12.43325563906186
C         7.77902055968180    5.51962735070155   12.03364866814758
H         7.77999996354033    5.23997110801323   10.98357839695703
C         7.20002902975728    4.69835141118869   12.98356460494467
H         6.72712427826742    3.77589186741038   12.67992735650624
C         7.23319149466228    5.05546646478197   14.32173476754379
H         6.78065471246152    4.41047922969512   15.06095097127887
C         7.85129769410852    6.23140227609059   14.71790110536121
H         7.88132701810577    6.50242025763777   15.76337320989009
C         8.43372274655252    7.05537793631697   13.77361928293934
H         8.93347443245302    7.97213750677567   14.05919139188778
C         8.38041483244177    9.41011563289554   11.50490194700319
C         6.99404696995776    9.46443796463395   11.44737479586519
H         6.43463444986935    8.55557668138447   11.26815181242363
C         6.35066665394147   10.67546929243893   11.61726515767648
H         5.27242257136558   10.72539959377419   11.57513955833607
C         7.09140300184210   11.82622739508286   11.84113057744758
H         6.58663608545143   12.77201814587448   11.97442696109155
C         8.47456429906716   11.76887911825168   11.89223559056219
H         9.04684194592726   12.66880598093084   12.06525391926622
C         9.12405765130145   10.55942674001103   11.72078575456696
H        10.20089041029685   10.48508519700929   11.75911159793935
C        12.97136913767932    7.04778788522227   12.77687381230058
C        13.07581335713663    6.12371198792128   13.80391414193864
H        12.46900000033730    5.22886001080908   13.77444976543621
C        13.95565061517175    6.35768383802679   14.84661266337369
H        14.04316660735596    5.63956860260244   15.64891275750254
C        14.72165442249742    7.51135556701510   14.86097299833638
H        15.40832801104002    7.69168411857882   15.67526652348791
C        14.60928967346508    8.43856698261190   13.83573937122048
H        15.20607570901088    9.33907695112548   13.85336984009263
C        13.73271275124204    8.20938662504297   12.79256134718654
H        13.62505489533809    8.92070003926209   11.98476938249488
C        12.77833497655559    7.04018769812312    9.90819905227817
C        12.28760469492584    7.76353521311476    8.82796675845253
H        11.33238666094577    8.26716065140551    8.90977167471676
C        13.04882101734717    7.87448340476062    7.67676829527335
H        12.67430070941598    8.44138787845154    6.83705764146513
C        14.29215376965922    7.26699787363583    7.60600372485440
H        14.88575178835048    7.35533153399388    6.70747323159799
C        14.78068854170306    6.54617221984780    8.68599352231983
H        15.75184133338303    6.07583689273018    8.62836285929777
C        14.02475517464736    6.42844728903304    9.83741696995176
H        14.39226756353131    5.87076246922915   10.68974525742314
C        10.66414422274307    3.16014881472516    8.96702950013513
H        10.58471152031449    2.72256554659658    9.96216836745235
C        11.80854597935982    3.89757916212211    8.67624136089350
H        12.57967860374535    3.95429908932306    9.44425327535282
C        12.33239635703691    4.13539060273086    7.27998438030884
H        12.74827294570013    3.19943218610066    6.89060364986294
H        13.15347749335454    4.85155973396373    7.34395444270897
C        11.25980574489688    4.68223696443751    6.32054779996347
H        11.73733944598648    5.35363953062221    5.60484390389277
H        10.80610486204452    3.86988943040391    5.75027416319451
C        10.16573215416990    5.43715964877684    7.04561878515521
H        10.11566697033148    6.50080555155619    6.81486820218519
C         8.99019032941156    4.84034447894816    7.49634349208148
H         8.10059690642467    5.46751489170834    7.54476152438503
C         8.67361516237215    3.36519529464769    7.42931905261507
H         8.38331355966379    3.10572166241670    6.40537867381718
H         7.80605501077247    3.18102652737815    8.06790538363733
C         9.83696501421512    2.47751674986472    7.90008286485219
H        10.48287186087325    2.21604394344296    7.06109592115591
H         9.43281147763956    1.54681979590321    8.30236345010542
N        10.75728125399068    8.08862876744404   11.60911837752802
P         9.19632988424601    7.82319423072893   11.24258438362015
P        11.78104706195229    6.83789902756601   11.42789747077110
Rh       10.23935360975645    5.25050951134651    9.17649731895602
S         8.83603751927006    7.21026088861070    9.37639135261326
S        10.97769836216032    5.01272163081283   11.49724824502840

