55
CSD_code = QEGYUY | q = 0 | S = 0 | Stoichiometry = C20H29Cl2IrN2O | MND = 8
Ir       -0.04982330754343    3.25940983138741    4.23197395673564
Cl        1.32320630007886    5.01771851903656    3.55807236052884
Cl       -1.82817949769682    4.78366552603682    4.27380470255884
O         0.65856205547786    2.34592925315974    1.86530931420594
N        -5.11048195764711    2.95604435961650   -0.44352773772715
N        -0.35916537937679    2.76324081751056    2.44496854916357
C        -3.95759015217599    2.84514689532085    0.26674034194246
C        -2.69524230324260    2.85650722600678   -0.36858659423687
H        -2.62145360383385    2.94569469042911   -1.43906917246195
C        -1.53527041874514    2.79815151055273    0.35181168322778
H        -0.57408148362977    2.83919439911994   -0.13839280840827
C        -1.55422998966242    2.74564028612353    1.75708032276280
C        -2.79979422388622    2.67752632061153    2.39963164431223
H        -2.84378827242734    2.55501727455286    3.46892221695477
C        -3.96019006791107    2.71719797569849    1.67299513066202
H        -4.88952264424097    2.63034149886488    2.20934897738166
C        -6.38677035888988    3.15159308228661    0.20923818632639
H        -7.01394822733811    3.75723014634669   -0.45168401325639
H        -6.23197188096323    3.72836697350194    1.12290614319955
C        -7.11069040918544    1.84208488616187    0.52675016359551
H        -7.38159040223066    1.32128669207673   -0.38807000195027
H        -8.02000324318025    2.05004865249450    1.08424795862804
H        -6.47762473878930    1.18832176683203    1.12109618263456
C        -5.12709533014089    2.78847520414705   -1.88247736587737
H        -4.39476240981107    3.45876446188466   -2.34355055354902
H        -6.11260015397445    3.08953866773603   -2.24228867822878
C        -4.85636415445294    1.34657086068929   -2.31410194905612
H        -4.86736457248190    1.27982569002686   -3.39877791867954
H        -5.61732743032643    0.67935983543660   -1.91828917289074
H        -3.88821130887025    1.01022387911938   -1.95341200606600
C         1.15708543117446    1.38864173365543    4.94003803255426
C        -0.23326754072377    1.15680868277845    5.16141583539987
C        -0.69685442590610    2.13667494733837    6.10167642220542
C         0.40880717123968    2.97872801164785    6.44675251903663
C         1.55513804063244    2.50152813388503    5.75096597518359
C         2.07938918102064    0.53926881007584    4.12811339947278
H         1.58481749181061   -0.37702564592175    3.81655285840141
H         2.96363357140523    0.27672416003862    4.70848374761516
H         2.40259527348437    1.07238334943505    3.23379004427607
C        -1.01192641444341   -0.01588411510752    4.64911940600662
H        -0.72565236911633   -0.26029381174294    3.62799065260813
H        -2.08070762228827    0.18426798697779    4.66276721509583
H        -0.82028397272616   -0.88928945201280    5.27578107856804
C        -2.04023851111894    2.20104877249537    6.75083906854554
H        -2.70079002545035    1.42480206238906    6.37345106209574
H        -2.50562599092073    3.17019832287108    6.57095788998343
H        -1.93205243417098    2.07309684600600    7.82826478686234
C         0.40276940104796    4.01582308848713    7.52688566770225
H         1.18400473385162    4.75243734805943    7.35500905038037
H         0.57438596095230    3.54817839813196    8.49924648885074
H        -0.55497624250919    4.53068971252848    7.55884783684294
C         2.94278931042941    3.02236986367796    5.90789412854310
H         3.65757401470879    2.37385095092910    5.40898323566386
H         3.19824339886542    3.09520498779014    6.96514783351135
H         3.02771213578544    4.01734967271931    5.46865590227777

