55
CSD_code = QEGZAF | q = 0 | S = 0 | Stoichiometry = C20H29Br2IrN2O | MND = 8
Ir       13.31604542178205    3.86015748802593    8.45868446435194
Br       11.63267586573979    3.82786356428813    6.62953747227508
Br       11.74072390745969    4.99012943879041   10.01346274434786
O        13.30637016314736    1.27599645833776    8.12848456861929
N        10.09984919509680    0.18005297103667   13.36513024892513
N        12.92317377060676    2.10426629790288    8.97776006333827
C        10.82876513537830    0.62453828650873   12.31311807357050
C        10.77993707471404   -0.01148065792935   11.05214496540714
H        10.14998590525599   -0.87009151207996   10.89409330846468
C        11.49806050435750    0.45989351628557    9.98873922360059
H        11.43651854064651   -0.01685257182273    9.02187655253878
C        12.27620243025927    1.62460424271872   10.10095720722692
C        12.38222490768156    2.23247878196571   11.36017439373535
H        13.05399083708369    3.06202228334530   11.50327814084842
C        11.69067161973647    1.73684921813761   12.43236694408668
H        11.83202194341631    2.21787795958838   13.38447712485804
C         9.97530912584336    0.94328188611185   14.58949014535541
H         8.98849588645835    0.73942880439549   15.01285500089434
H        10.01731875472479    2.00997072803074   14.36155624260741
C        11.04877373096691    0.57339839458396   15.61399603172465
H        10.98173330503950   -0.48066362857020   15.87330913468112
H        10.91564124206132    1.16068723567861   16.51828802147562
H        12.04257265460180    0.76249047365224   15.21720602707859
C         9.34035466589122   -1.05127718728189   13.31590610494232
H         9.27220513588598   -1.44112099712743   14.33498898849919
H         9.88029301941232   -1.79136233556503   12.72165015705701
C         7.93220190259256   -0.84520777206773   12.75639698461161
H         7.37400584092781   -0.14850510992590   13.37701846539132
H         7.39918373716599   -1.79180667559858   12.73378264262646
H         7.97404346433067   -0.44124089400510   11.74862444889180
C        15.61792103249789    3.44462991989691    8.43178711636306
C        15.26243680273160    4.51147554751343    9.31567836707298
C        14.82811813012269    5.63903478523672    8.49747496345523
C        14.77641889826072    5.20981381797348    7.16996962421302
C        15.21231277495278    3.81951901205472    7.13202785983610
C        16.28003203566222    2.15283573621756    8.78000475552258
H        17.28921018113927    2.13612081121890    8.36624261065549
H        15.73107220616173    1.31242508552711    8.35372732960828
H        16.34531730085484    2.01562287040774    9.85699948983343
C        15.63208358989524    4.63948398581587   10.75819766721554
H        15.72969324447648    3.66477882280455   11.23257041605811
H        14.88393193582803    5.21788587748064   11.29778851567264
H        16.58722510515370    5.16067842034552   10.84776371693777
C        14.62251255510476    7.01925643886787    9.03031234495025
H        15.58452625510156    7.44680219045959    9.31855328325758
H        13.97932601800902    7.01096824372078    9.90917509826443
H        14.16562980260800    7.66444995547576    8.28437305348070
C        14.48985359060570    6.02221680497148    5.95130802319208
H        14.09323724166315    6.99971401259925    6.21413435271206
H        13.76407514753662    5.52398289178478    5.30927145976774
H        15.40896455912807    6.15967336664415    5.37918160975027
C        15.40274708723341    3.00863705115982    5.89900498570668
H        15.15880269886256    1.96488404380911    6.09084574142733
H        16.44325785508580    3.06188602286764    5.57229054819215
H        14.76744426307081    3.36944559776021    5.09406317482081

