75
CSD_code = QEHBIQ | q = 0 | S = 0 | Stoichiometry = C22H44FeN4Si4 | MND = 4
Fe       16.37141371832616   -0.23361669478799    4.48378578512957
N        15.34272486322526   -1.72183707582734    5.15131694590715
N        17.05073718462294    1.47403952254638    3.90046696047138
N        17.13816396475487   -1.02803892307964    3.08085563737671
N        17.80792077738421   -0.81876483248912    5.36697490979968
Si       15.16332315175771   -3.27147062792652    4.46744832452691
C        16.81246384708888   -4.24033959222414    4.45964092300468
H        17.39263003207807   -4.01910928842976    5.34866838310363
H        17.42025104697603   -3.98765505588126    3.59879271049812
H        16.63844929875669   -5.31110910544524    4.43584951478210
C        14.49460816055944   -3.18623338101296    2.67555834423551
H        15.29555697276168   -3.04657654795571    1.95858703463879
H        13.80166299864830   -2.35987427388669    2.56258398295717
H        13.96695351710889   -4.09515409261487    2.40502915747168
C        13.91933912428914   -4.31153102668386    5.47373416409931
H        14.20374091277885   -4.35031196441251    6.51837058151735
H        13.86754430838368   -5.33060483730139    5.10460559090831
H        12.92319322892341   -3.88930262999719    5.41814056055156
Si       14.54866978293654   -0.99156978309086    6.46679080659023
C        14.98425498247068   -1.77403738335476    8.16161975366617
H        14.34473735548519   -2.62636473872340    8.36031681021659
H        14.85325226698528   -1.07432486505163    8.98129860082987
H        16.00981367626659   -2.12640635193191    8.17916314765939
C        12.63727726628864   -0.94494265991918    6.35390470458087
H        12.21579136589445   -1.90915492375069    6.61259861423713
H        12.30461042875480   -0.70501152473461    5.34966256386296
H        12.21127194219685   -0.21118229029655    7.03142207082344
C        15.17519611135600    0.81544147063770    6.41667153989571
H        15.50751345014297    1.16662017343495    7.38815573618490
H        14.40206835159738    1.49724950778208    6.08376833852118
H        16.02017508734635    0.91500437559499    5.72655784234872
Si       15.68955491437893    2.09369043769075    3.08952733074412
C        14.38028664100358    0.71489128555869    3.30212773765539
H        14.84065922719701   -0.20296992970968    3.68395085046710
H        13.88492283466406    0.46470819622834    2.36960164168831
H        13.60545097021381    1.00449767734975    4.00148640725455
C        14.95544146798229    3.70464994347015    3.82012741971565
H        14.94309592905573    3.67851044222562    4.90454332336928
H        13.93923569162622    3.87609857510631    3.47809968716765
H        15.54732476149987    4.56263804305199    3.52376091664730
C        15.98718350657362    2.41428892351011    1.22299846030806
H        16.38384859238283    3.41132556500909    1.06858559738526
H        15.07302899439739    2.33694006173600    0.64206428523217
H        16.70631826230737    1.71140326163039    0.81599734482314
Si       18.54270683347685    2.20240995802786    4.28082920278556
C        18.78889203662466    2.38023083871586    6.17101589444437
H        17.84514553668967    2.58517303296715    6.66409272630739
H        19.46572026497814    3.19472001461824    6.40809696619549
H        19.19951229976987    1.47584339540983    6.60524500472428
C        20.01772377971711    1.21913567301729    3.56241621740100
H        20.31170465917841    0.40578207281365    4.21531084772017
H        20.88407011620788    1.85732401796285    3.42274671388209
H        19.76286868372355    0.79196954321292    2.59885851359976
C        18.64076953195355    3.95896572363768    3.54134419239027
H        17.91399643497395    4.61685887850317    4.00231545930026
H        18.44213399156384    3.94222819216433    2.47651321200855
H        19.62283528621254    4.39571523347189    3.69022915273316
C        16.68618135802875   -0.95580961804389    1.83254743677840
H        15.72980937082674   -0.48634558923782    1.70897598747257
C        17.38367937867355   -1.44194918001622    0.74842730656839
H        16.96948040856207   -1.35324442429660   -0.24326657027893
C        18.62122856968975   -2.05002195130586    0.95163335348397
H        19.18833927082564   -2.44245334219710    0.12244815551949
C        18.34110974341781   -1.60167880662422    3.28419089337757
C        19.10224080986541   -2.12587138409590    2.24205021762177
H        20.06097130739849   -2.57275215294725    2.44969565697654
C        19.78278947975716   -2.18175912089133    5.27744189380760
H        20.46900694156902   -2.76209246681723    4.68221745904808
C        18.69835563489140   -1.55291356777932    4.67022501407073
C        19.95326036289788   -2.06404516644064    6.64103806370581
H        20.77999627191937   -2.54251777775419    7.14177155245665
C        19.01948744077419   -1.31604301524234    7.35599472977387
H        19.10718942207016   -1.20127292658521    8.42466174988941
C        17.97881314251614   -0.71585611995458    6.68147332089711
H        17.24662066180731   -0.13033302632487    7.20244863248383

