64
CSD_code = QEHCAJ | q = 0 | S = 0 | Stoichiometry = C18H42ClCuP2 | MND = 3
Cu        5.06042588074980    5.60132784179810    3.03314459873997
Cl        6.87640149958974    6.69437467159125    2.32683314575740
P         5.14929600451362    3.38215934785690    2.73523398533950
P         3.74724734248256    7.17335065011289    3.98548026060091
C         4.69759588833596    3.08005509916072    5.45894053485785
H         4.15577372902538    2.58411481988575    6.26294052638548
H         5.74275513834008    3.15499639260396    5.75032408783192
H         4.30949636386452    4.09304382454111    5.34844279089177
C         4.54975604919217    2.30122218646803    4.15112234776036
H         3.47651730942872    2.17601916349197    3.95430329800357
C         5.18555890695256    0.92080749597081    4.28092960230741
H         4.67849552707079    0.36655153986997    5.07048340409125
H         6.23547003009154    0.99824913580386    4.55151768082576
H         5.10515075492173    0.34668961643454    3.36247717358840
C         2.70843716277827    3.43786637067814    1.42785519610048
H         2.15706953004841    2.94256562119986    2.22535897665982
H         2.14532992382469    3.31776452106879    0.50386995427077
H         2.77258735553646    4.50121445409305    1.65969190790033
C         4.11092126382145    2.85247094356571    1.27518860386738
H         4.58890453149446    3.36519490291126    0.43039293223091
C         4.05643689247585    1.35756486520816    0.98394808193613
H         3.52077022454108    0.82857138658878    1.76879156136594
H         5.05375369558456    0.93478121401456    0.88745789902406
H         3.52742810360525    1.18821486335160    0.04684504839947
C         7.80779177938617    3.26983164437983    3.39905648389430
H         8.82415182157379    2.93605187981960    3.19625248341171
H         7.52659896283129    2.92269323543039    4.39158455288346
H         7.80088302204848    4.35933810347296    3.39576866950533
C         6.85506302020391    2.75660221474512    2.32036808199359
H         6.85908862044130    1.66068852755571    2.30063981718606
C         7.28895410704308    3.30992852548738    0.96548643927573
H         6.72414568455449    2.87574681122344    0.14331062195165
H         7.16532366445989    4.39265827786883    0.95409232677335
H         8.34315952000662    3.09287397331114    0.80174551300559
C         1.61029215482125    5.44326861562595    4.44299268789575
H         1.10124694498653    5.61251611644585    3.49635941944252
H         2.39368959072057    4.70441595364547    4.27733336656930
H         0.88688259821985    5.03404012373608    5.14679028299241
C         2.20684700855883    6.74345687499606    4.98148926277142
H         2.59370710781939    6.54170694641955    5.98932375941734
C         1.12549907891174    7.81391544648863    5.07889634120728
H         1.51590813937320    8.75464323244634    5.45567886044791
H         0.66264813608407    7.99008758745822    4.11073973249204
H         0.34744691164894    7.47467269103730    5.76247068831166
C         5.49432754982351    6.98777675407129    6.11205982494559
H         6.23419954916942    7.45135931080550    6.76209530136759
H         4.75672788385869    6.48750458346094    6.73945306730172
H         5.99919021200186    6.23945648591298    5.50120576620899
C         4.85004998855838    8.03985898005366    5.21068415192101
H         5.64433663066089    8.45356049676702    4.57706691596333
C         4.21288204901392    9.15888596333807    6.02569068478626
H         3.72599959027360    9.89093595577628    5.38483714738063
H         4.98352796428410    9.67375624229027    6.59813556198219
H         3.48373233424420    8.76300177041352    6.72993685725908
C         2.50113073640547    7.85483816156331    1.64691458448522
H         3.19782174052252    7.19491207611723    1.13041732165782
H         1.64967605480820    7.26361268385347    1.98078560700092
H         2.14320449555822    8.59903541226003    0.93699084832321
C         3.21310933331751    8.52856859792443    2.81991565158221
H         2.52275167244910    9.21002989364317    3.32820918359318
C         4.42910522306090    9.30266832449655    2.31760594302971
H         5.22815686240867    8.61811965593264    2.03381070643883
H         4.15827142854575    9.88938382500186    1.44114624427960
H         4.81119171908036    9.98452711645561    3.07388564033648

