59
CSD_code = QEHCEN | q = 1 | S = 0 | Stoichiometry = C22H31CuN4P(1+) | MND = 4
Cu        9.68086707488122    5.09599588762678    8.97709227847860
P         8.93256868008261    5.29521715144618    6.85595180923571
N        11.40464462424551    3.77817778668695    8.89760473113885
H        11.58809610969585    3.46817912513343    9.84742340638482
H        11.15073818700810    2.95743513048079    8.35731662079990
N        12.81591671790805    6.09111860023483   10.19324368330308
H        13.78108186649829    5.99038868128484   10.48651151364066
H        12.26980749548233    5.40291944976373   10.70110476143029
N         9.79958180599729    6.86168327572899   10.17758553990276
H        10.76945387750648    6.93933051099643   10.47978671324697
H         9.57658728062011    7.69343860565873    9.64169392546570
N         8.66617364694381    4.37673046044793   10.74383734326972
H         7.67896903055488    4.43921872524408   10.51188347252730
H         8.86267010455035    3.41553682054837   11.00008426223989
C         8.02226465900964    6.81447763606511    6.43007876234943
C         7.23485462682341    7.36258157588755    7.43893535252642
H         7.22316375874927    6.88210698030958    8.41008015859427
C         6.47902722502200    8.49421001407860    7.19884110325851
H         5.86589424449944    8.91437840388664    7.98209384200385
C         6.51204909819017    9.09010604700229    5.94783067402462
H         5.92556127955997    9.97552098634508    5.75713636704547
C         7.29893310811246    8.55194461867591    4.94249841525919
H         7.32366744887218    9.01815017708120    3.96914508918287
C         8.05401649346819    7.41609091694037    5.17678539888283
H         8.67017854106351    7.00387966965630    4.39007510131158
C        10.19946138288898    5.18330853983747    5.55637713907561
C        11.08670181575681    6.25056676344141    5.41992130943469
H        10.95017998744470    7.13622051154432    6.02682546263413
C        12.11916766781153    6.18275965177744    4.50459381761064
H        12.79544166140097    7.01662272826016    4.39238094207876
C        12.28501050076715    5.04391209522961    3.73052031095608
H        13.09006534333087    4.99169009382260    3.01397342794349
C        11.41798131824622    3.97372273443146    3.87703837420821
H        11.54849776750408    3.08656079417694    3.27595892966046
C        10.38014253871867    4.03630879884919    4.79114420196833
H         9.70479876473308    3.19971209766219    4.90388209275571
C         7.74036860672895    4.00079086356714    6.38379574033918
C         6.94917741467788    4.09549219795264    5.24340612792425
H         7.02306319591243    4.96462358932301    4.60559931501730
C         6.06979954174941    3.07456451557637    4.93288721844085
H         5.45615998612780    3.14646766194580    4.04782225647621
C         5.97362091160205    1.96088467852571    5.75323207472124
H         5.28544168102634    1.16756308980632    5.50527759542344
C         6.75653157614978    1.86569410267813    6.89233548733673
H         6.67880521315674    0.99872201615618    7.53139057595469
C         7.63561547807516    2.88561421977693    7.20855292413796
H         8.25382561964192    2.83330917098048    8.09811145208589
C        12.60333077292039    4.40698835070590    8.32469665029741
H        12.52023241497130    4.37767292435788    7.23726613704732
H        13.51603517950275    3.87329707224978    8.61741196652046
C        12.68171385252873    5.87560771131560    8.76106245029429
H        13.51531123532547    6.36245295353147    8.25421650148246
H        11.75288676981630    6.35685154948769    8.43189146054132
C         8.90456591551440    6.72562650401798   11.32474006784267
H         7.88321885787340    6.92838967652393   10.99278672018433
H         9.14599129512090    7.42112257380199   12.13615845629014
C         8.98229293056739    5.28973274465003   11.84313224237139
H        10.00120681488442    5.08199617961534   12.17769933530880
H         8.30738900217797    5.17003360721953   12.69839091015123

