95
CSD_code = QEHDAL | q = 0 | S = 0 | Stoichiometry = C28H60FeN2P2Si2 | MND = 4
Fe        0.21821755052830    3.77305121549887   14.58642648146654
Si       -1.36282834606740    1.79867986392164   16.21441801541975
Si       -2.95588074706707    3.75194467193817   14.47185109239291
P         1.14067874652951    2.97583349406226   12.68096684643140
P         0.16182800249722    6.24888870994281   15.71037292438760
N         2.13966001207610    4.28769345764346   14.63857565787870
N        -1.47538223149564    3.16333354441598   15.14902480299055
C         3.13287743553384    3.41938734789235   14.27281799992590
C         4.34796760107980    3.87410108006003   14.72361600189125
H         5.30352181061152    3.40159909635105   14.59058096553471
C         4.09259474175964    5.09167270911772   15.38679552740430
H         4.81800531651501    5.72955870366162   15.85713978723925
C         2.73615014004066    5.31868373822932   15.29835324917568
C         2.72685461642666    2.30223359427730   13.36988066483471
H         2.50848694581393    1.39316235598981   13.93534324125819
H         3.48753141735885    2.06993113445649   12.62276882475032
C         1.72028562201064    4.20142847492544   11.32472536601482
C         3.02193503461633    3.80537097875780   10.63048322805633
H         2.96815524288832    2.81698854899078   10.18422786898271
H         3.85411958372126    3.83497349843639   11.32932570241398
H         3.23274551045845    4.52125036418739    9.83598719572257
C         0.60804921084915    4.39401755943420   10.29186705780280
H         0.84908410583960    5.24137538956890    9.64974761138326
H        -0.33645772982820    4.60613112749443   10.78815031903485
H         0.49216700140366    3.52500523909217    9.65116316051293
C         1.92845770825868    5.55262364240079   12.01423148801623
H         2.81904890875487    5.54472165406485   12.63454745798102
H         1.07173821719467    5.78861611049127   12.64569204103349
H         2.04318468830126    6.33737886183994   11.26685486489175
C         0.37620496446978    1.43861729862708   11.84064967472392
C         1.15140903002168    0.86846403742700   10.65617719220044
H         2.18894066671011    0.68020654597598   10.92474481536418
H         1.12424597277345    1.52574163863056    9.79187885810736
H         0.70517481989025   -0.08177539418167   10.36134118849315
C        -1.06323521757061    1.77532402475271   11.45407447072549
H        -1.11871442601000    2.42718463329234   10.58914939721088
H        -1.55141350095222    2.26482272710810   12.29435662290543
H        -1.61052733894442    0.86359609629458   11.21367576120025
C         0.30956990208560    0.37580206426378   12.94065420704945
H        -0.38125704962618   -0.41604769256821   12.65233992559113
H        -0.04805558570087    0.82440116073698   13.86489682441013
H         1.27780597401237   -0.08752157670802   13.11389984092118
C         1.98855393810481    6.56714485271515   15.62340885800224
H         2.15581575639689    7.27591985487239   14.80499144986486
H         2.36444920377812    7.02616178782897   16.54029050235831
C        -0.46062890953313    8.01150829338342   15.27804280865673
C        -0.35061673927357    8.10132032379780   13.75118621006918
H        -0.90044926363424    7.29184804555779   13.27837126856942
H         0.68539035474350    8.05353006604913   13.42324648602948
H        -0.76642395821210    9.04604578766552   13.40134340324217
C        -1.93646632640792    8.13538058144990   15.65243058902601
H        -2.36948566958225    9.01867278864333   15.18227717744720
H        -2.06383130322773    8.23873836425734   16.72692088901171
H        -2.48805257970052    7.26205244184348   15.31144782752554
C         0.31272947900789    9.18374269991111   15.88204163446420
H        -0.09864530567486   10.11446015823078   15.48970164871595
H         1.36593655455782    9.15380470342790   15.61844505387235
H         0.22736126046294    9.21611710314365   16.96215738314995
C        -0.01726272332558    5.96402826446252   17.58785112677099
C         0.88684512164484    4.75702001030041   17.85247590723296
H         0.71211721725754    4.36261940837160   18.85318943138713
H         1.93983304146446    5.01332183633218   17.76871666171870
H         0.66571309814261    3.97122448713058   17.12689782498876
C        -1.45814766387153    5.54035174304134   17.86807279207693
H        -1.54635718468049    5.16407470842089   18.88718155933434
H        -1.75089332328245    4.75270551685593   17.17812775123400
H        -2.14860350058924    6.37239461581471   17.76628321164221
C         0.36471607063672    7.10267021617683   18.53060704246034
H        -0.37406036568660    7.89999713944640   18.50834061142581
H         1.34243762342531    7.51881376892863   18.30069059770970
H         0.40214259210193    6.71987232391176   19.55092648574589
C        -2.25181686834525    0.22430788181888   15.58740063039894
H        -3.30463987972385    0.26148304611267   15.84457390942177
H        -1.83328492172595   -0.66026719376912   16.05817716651612
H        -2.18346400432433    0.09166758752863   14.51492829455077
C        -2.09557390680229    2.06469898971762   17.96274725941366
H        -1.46901116141257    2.68788996445201   18.58998504155663
H        -2.20735638017600    1.10689332883667   18.46187315487459
H        -3.07742844686606    2.52350642384815   17.91516499155672
C         0.50912917919719    1.42958515410507   16.40457750291472
H         0.75073571857366    0.41999373698362   16.09066913237260
H         0.82196177478501    1.52286993591201   17.43852853532324
H         1.12287706520266    2.11357733339329   15.81432293964697
C        -4.13520390703903    4.67691984670628   15.66214834645169
H        -4.37319603531682    4.06349502908114   16.52512119899859
H        -5.06902353847768    4.89842525624581   15.15391867972479
H        -3.73242665021184    5.61292883502332   16.02869793622846
C        -2.37169420908785    4.91454771075155   13.07118094090356
H        -1.28266898163018    4.98674349178585   13.09580089564442
H        -2.78620808148673    5.91037653542059   13.17680387138290
H        -2.66447619527971    4.54823385526729   12.09362249083549
C        -4.08292757780500    2.39566602103533   13.73094503715304
H        -3.54024948779742    1.63951097760051   13.17745192268742
H        -4.80856661524071    2.83941594517545   13.05587295872069
H        -4.63554771182060    1.89203668421430   14.51634874523218

