34
CSD_code = QEHDAI | q = 1 | S = 0 | Stoichiometry = C7H19N4O3Pt(1+) | MND = 4
Pt       -0.08360467958994    4.76476203685543    7.64519839057514
N        -0.74266884579568    4.99872702609523    5.71469163553473
H        -1.50038527264459    5.68304505888879    5.81969087654111
N         0.68030103830271    4.85400323084236    9.55633629503294
H         0.05516791895380    5.55464918739018    9.97527203730161
O        -1.91218565224928    6.06904615306373    8.99632870691211
N         1.66927551916480    5.55354537090931    7.03328436726743
C         0.35652524167026    5.62752184507028    4.94732274936783
H        -0.03087891763304    6.29396158172246    4.16988179582513
H         0.92131548836559    4.83586765421357    4.44933449683104
O        -1.92971051072131    4.06926166936402    8.24802304619956
N        -2.53774601216360    5.01746455126968    8.87851072797155
C         0.63080003460228    3.64929564856657   10.39191495264616
H         1.25688508628208    2.87085511040233    9.95536278767337
H        -0.39310809112057    3.27910571565848   10.44150771082544
H         0.97813390435399    3.85605810127435   11.40711796925554
O        -3.63086053152083    4.82401716706094    9.29928280071056
C         1.26293364695227    6.41727948602545    5.90187889449100
H         2.13787005843757    6.80222946833257    5.36605896746262
H         0.70130570141218    7.26814037829181    6.30188270531963
C         2.12596531570802    6.32058582486565    8.21408109017295
H         1.46256555077577    7.18148272142796    8.34512795602930
H         3.14892434937015    6.68703925578948    8.07457448742477
C         2.70056249990449    4.60129324804629    6.60815008044939
H         3.60483721695160    5.13043041957106    6.29334681630021
H         2.34453781065031    3.99563069716164    5.77835834350927
H         2.95703604016128    3.92660529534096    7.42137156612594
C         2.03653095797450    5.43771500502693    9.46513902008576
H         2.76038331024013    4.62032489061646    9.41361450547675
H         2.27222159452468    6.03146645362568   10.35431776403749
C        -1.30916904922123    3.81550761790581    5.05635625768854
H        -1.70738273940543    4.06082993019302    4.06894818649329
H        -2.11180940552446    3.41286104661997    5.67456328665704
H        -0.54066857716864    3.05069115250890    4.94866872580457

