73
CSD_code = QEHJAQ | q = 0 | S = 0 | Stoichiometry = C34H30NO5PPdS | MND = 4
Pd        3.89778748595120    1.65475489642808    9.18378238455734
S         3.84606609611987   -0.30936165494040   11.16050206797108
P         5.09114122812231    0.05716797983619    8.16845649794568
O         4.90422607896580    0.67900506635182   10.88334122183501
O         2.51476285341995    0.15716661970816   10.76604710140402
O         3.90826516486685   -0.80716186234691   12.51132979085812
O         2.81017876283136   -0.40201046598100    7.25762842631372
O         6.11915560207855    2.35125681056331    7.37272900777960
N         3.18800009433301    3.00724094821220   10.51465366309431
C         3.00888054185438    2.63266033578216    7.64328157890162
C         4.63960849106993   -1.60160622166802    8.79732548646233
C         4.77697356172356   -2.75160135399905    8.01954516917712
C         4.41755951567497   -3.98906651148106    8.52403639852170
C         3.91970025328273   -4.10064795138725    9.81297390971819
C         3.78462437144148   -2.96317921905231   10.59162741609684
C         4.14399429617708   -1.72900869194240   10.08676232560842
C         5.39374417616590   -0.26768240350235    6.39857124383175
C         6.68528176929069   -0.21939600789213    5.92464271300793
C         6.96697353718318   -0.41029015935027    4.56755330476034
C         5.95445115686507   -0.64786199245718    3.67969493434050
C         4.61537009862306   -0.71062071023370    4.11675638343757
C         4.33266061747302   -0.51757329229773    5.49326509944937
C         3.55472137028205   -0.96154338928868    3.21936851488929
C         2.26843041729505   -1.02474980298430    3.67119241009506
C         1.97146725404467   -0.84359334837580    5.02916270109073
C         2.97872162537925   -0.59188688563775    5.93011026996048
C         1.51299760120093   -0.45170674683221    7.82089338086315
C         6.75710845551061    0.18979354296273    8.93961011761083
C         7.35837424550130   -0.89958932173871    9.52838829396269
C         8.39429104937535   -0.74205958159588   10.45806842767360
C         8.78500271763704    0.50557393911060   10.85480554279192
C         8.23446637325772    1.65274662025543   10.24784083012413
C         7.26221400059946    1.48410476538476    9.23226819320242
C         8.63093757421979    2.95757169109693   10.61404675167227
C         8.11232203261462    4.04474929624141    9.97158039862206
C         7.23719855698932    3.88815338857587    8.88524839661835
C         6.83098406785738    2.63025907127835    8.50368284278955
C         6.03189702949639    3.34827297913620    6.38066134220498
C         1.99319546848281    2.82147011027681   11.06870231624204
C         1.75064976299020    3.07061710199231   12.40959082111839
C         2.79162305368652    3.51797665742125   13.20610483817689
C         4.03188986438846    3.72796542982046   12.62135835636343
C         4.18838188496324    3.45899134638104   11.27324383977095
H         3.27905021570962    2.27252228792500    6.64967463184497
H         3.25473286638393    3.69837865827922    7.69809709810412
H         1.92248548822161    2.53811022234579    7.76206404521181
H         5.16843653644967   -2.67437944866510    7.01456538305524
H         4.52961510907693   -4.86984447199160    7.90796214776304
H         3.64037450006259   -5.06662301757632   10.20652713811703
H         3.41144023996606   -3.00076726216311   11.60291790903161
H         7.49514874051277   -0.02614912650326    6.61369248543558
H         7.99189424941065   -0.36795549039423    4.22857021733773
H         6.16342916260424   -0.79295554405812    2.62970269943234
H         3.78157206640787   -1.10446313271039    2.17359187857102
H         1.45806586454027   -1.21979280663524    2.98454704484714
H         0.94473082268854   -0.90713526571837    5.35129635515578
H         1.64761383660409   -0.19570016550115    8.87913923497824
H         1.09072263405016   -1.45797925493444    7.73099817264733
H         0.85109107965126    0.27439603651608    7.34037867560488
H         7.01147414846738   -1.89881734298957    9.30652962363822
H         8.83870563268850   -1.62130055040063   10.90158928654717
H         9.51997550350730    0.63195775414091   11.63652627915253
H         9.35495651613362    3.07765197406524   11.40614379568257
H         8.40214788662858    5.04347575467312   10.26426934640647
H         6.90275750743889    4.76457151944959    8.35217382565204
H         5.60507555105779    2.85969987531271    5.50620231474724
H         7.02568027914315    3.73813298754295    6.13503909234072
H         5.37927367597295    4.17022496283791    6.68530897680263
H         1.20733494619383    2.46245995558482   10.41403194928969
H         0.76983837063898    2.89465304738585   12.82201706657768
H         2.64232620830039    3.69884515577497   14.26017431481578
H         4.87021814761006    4.07804312115129   13.20316452657284
H         5.14715205459752    3.61183854541336   10.77766977373245

