26
CSD_code = QEHKAQ | q = 0 | S = 0 | Stoichiometry = C6H13Cl2NO2PtSe | MND = 4
O        -2.02134318688945    0.95521644150295   -4.51109710348168
C        -3.09857575084177    0.68913138514921   -5.40681277905433
H        -2.92391504288540    1.30322586276007   -6.28623987117182
H        -4.04585263344270    0.95909000252794   -4.93729924227881
H        -3.11925714228525   -0.37007595145655   -5.66844591334145
Pt        0.67152262083565    0.33525103891799    0.14548005982713
Se        2.52713614114367   -0.34731289607667   -1.22975881369212
Cl       -1.18297759520579    1.04709768374136    1.24600992430533
Cl        2.02749110540976    1.00643721872951    1.79793498662345
O        -2.48259418382030   -0.90873849126764   -3.34290041227334
N        -0.71872089734263   -0.23511627862324   -1.37551151250259
H        -0.77820281442774   -1.23925807151295   -1.55730268439750
H        -1.57574416602915    0.02798852889843   -0.86994208130683
C         0.64531454027193    0.17050922830312   -3.42228581868533
H         0.54088064562193    0.60991635601335   -4.41735407933061
H         0.73561363510784   -0.91433635674997   -3.53986085282087
C         4.03705254748649    0.76613088006636   -0.74947075595669
H         4.43770411155997    0.37385204485215    0.18220707991209
H         3.69324952022990    1.78406824065058   -0.58370639333510
H         4.78551508842374    0.71830324162647   -1.53821086578740
C        -0.64295752796673    0.48443785684979   -2.64186687991552
H        -0.69824797716702    1.56109339572374   -2.44538455509043
C         1.91618155392399    0.72339463684763   -2.78660624060094
H         1.77007388042495    1.74981971408090   -2.44158046083814
H         2.73037694710242    0.70300117798304   -3.51440338752324
C        -1.83282341923717    0.08527311045828   -3.52629134729232

