49
CSD_code = QEHKEV | q = 0 | S = 0 | Stoichiometry = C18H28P2W | MND = 12
C         0.99383033635212    1.31804374440093    2.36456953092212
C         0.82499700092030    1.34482065908482    0.93225695325880
H         1.28294656476278    0.64631994172472    0.23983266379293
C        -0.19070840981009    2.28186374891948    0.60684335112248
H        -0.65472385065406    2.40915198182418   -0.36119217991289
C        -0.63248941685487    2.86783059441082    1.82620230214658
H        -1.48660011684692    3.52900235976540    1.91692937869906
C         0.07049237609224    2.26863720438052    2.89653275285972
H        -0.09998945959854    2.43801093463883    3.95184695899391
C         3.19062143660093    4.89520394524092    2.50231283356038
H         4.22195728231178    4.77754085950272    2.81502819190479
C         2.77779490580664    5.51269204253577    1.28108210207041
H         3.44088763301386    5.81621785377624    0.47913898036293
C         1.39562643922945    5.74795749266378    1.34382350762824
H         0.80809472687350    6.27776791288836    0.60605274127802
C         0.93021460419068    5.28565285899325    2.61239341215247
H        -0.04705919610408    5.50524390489783    3.02604027738836
C         2.04329193319243    4.78017568119262    3.35126363438755
H         2.06948803250578    4.57338710628523    4.41215012901380
C         3.54204913226927   -1.52173890709968    2.69192167126066
C         2.03315076198784   -1.76875277698419    2.78237528705311
H         1.56460920386039   -1.65849756088976    1.80440156739874
H         1.56503537236475   -1.06800560139449    3.47254187952311
H         1.83860381944306   -2.77889219179186    3.14159017224695
C         4.12879144535548   -1.54845502451992    4.09762901690221
H         3.84143204945437   -2.47599648348444    4.59409450325619
H         3.74580017777325   -0.71453714363081    4.68458603190870
H         5.21447927796146   -1.50337190023220    4.08088121763686
C         4.14439882378414   -2.63460094555162    1.83284218262955
H         3.88008939185991   -3.60762697855141    2.24700775638526
H         5.22674781903690   -2.57228441083051    1.78838362295919
H         3.75524300639432   -2.57892194070626    0.81753268991894
C         5.47581611373313    0.82902153585302    1.98664542906224
C         5.75026386457578    1.43238975027482    3.36182023178742
H         5.64011342428688    0.70187100954009    4.15732331918063
H         5.06993241725626    2.26114344371933    3.55714756342163
H         6.77077675560381    1.81648782855644    3.39035954526700
C         6.53468469939105   -0.22299112227275    1.65980411610911
H         7.50797149468489    0.25807352561385    1.55962220939847
H         6.30478300138182   -0.71864521383126    0.71854638333251
H         6.61424991285667   -0.97060030594983    2.44470435984701
C         5.57183641217439    1.93956947176955    0.93568888517359
H         6.54382847437072    2.42914956781322    0.98719449412861
H         4.79308155052344    2.68540345332388    1.09397521955431
H         5.44465341747358    1.52739242648537   -0.06359841725389
P         2.64818889451937    1.44258448756492    3.08917934159694
P         3.71275723491316    0.13251200596011    1.73023933648224
W         1.63535369274765    3.37395112716921    1.68556701258753
H         2.62930553595694    3.04924804694327    0.44578584961821

