53
CSD_code = QEHKEU | q = 0 | S = 0 | Stoichiometry = C23H21N5NiO3 | MND = 6
Ni        5.79806647914484    4.76750396916172   11.27255633539126
N         6.65974978182816    3.74373171387973   13.03847669243189
C         6.02460357030667    2.70298920806308   13.55623534017002
H         5.53423550930757    2.04369714368941   12.85120968251582
C         5.97618612192309    2.43877979994357   14.91573323969144
H         5.43420007581501    1.58434288300406   15.28794123514421
C         6.63234304874072    3.30344583480706   15.77658866235176
H         6.61103799488060    3.14227783844926   16.84410860171742
C         7.31001069065028    4.38635593517231   15.24378056897189
H         7.81015412741547    5.08668926357184   15.89372346730582
C         7.30211930317652    4.58217974557377   13.86479700625592
C         7.94720006466739    5.74765925040349   13.23005814677961
C         8.95996911315629    6.48938605876392   13.83607710412774
H         9.37462356937854    6.19278566618389   14.78685038435995
C         9.43774245920821    7.61646734440335   13.18722007976788
H        10.21341549084762    8.21600258813000   13.64165438001856
C         8.90344968956837    7.96450452049838   11.95748524356898
H         9.23301305022057    8.85054371749874   11.43872883841026
C         7.93251195219389    7.14020848202585   11.40066528766337
H         7.48430397549341    7.34253137294086   10.43744678115977
N         7.48133077060342    6.06686332982457   12.02063950603826
O         4.81082587991579    5.71392041010269   12.48706907052541
C         3.81109015857154    5.14124118632496   13.08388997881647
C         3.75138198435283    5.11191495381254   14.49417594615473
H         4.55341089547761    5.58477785018491   15.04332008738004
C         2.68865330389649    4.53494127442649   15.15377495838588
H         2.66866601051154    4.53451904577714   16.23512164460879
C         1.65332263851270    3.94618509093441   14.44504595662494
H         0.83019857937986    3.47911586136481   14.96472529762221
C         1.67727442437447    3.97541527195528   13.05874361526440
H         0.85919866566932    3.53885422721500   12.50028333233168
C         2.71772171730298    4.57200006191954   12.37720384389234
C         2.76484437069433    4.64903367030226   10.87987032260569
H         1.84468572683337    4.23064800978937   10.44340599919597
H         2.85564683342337    5.69877855429337   10.57887345334751
N         3.95071179983815    3.95565591004364   10.36142917889946
H         3.84691668958661    2.95508311176064   10.54683797934567
C         4.13534154255999    4.17852017704705    8.93551282023274
H         3.17758003610942    4.15188286370066    8.39622968833482
C         4.79440175695133    5.61838448513732    8.64622143637410
O         5.48542499632214    6.09462495952362    9.57047872167547
C         5.07764632424668    3.13323183063052    8.34249303434288
H         4.73210467240755    2.12215348714471    8.60037012838862
H         5.06231359871809    3.22527965752886    7.25533185146626
C         6.48990036546290    3.30094512770420    8.80484791078059
C         7.61918553100732    2.99961965556666    8.09506309358327
H         7.74109715485005    2.62379221194342    7.10091492893708
N         8.67753669791110    3.28611103916923    8.90823751493940
H         9.65107957531529    3.19553826187860    8.66786303367918
C         8.17452559740711    3.75245617257745   10.06527346237056
H         8.78374096485696    4.05069710646799   10.89520568587662
N         6.86178739493732    3.77170936588358   10.03485435226387
O         4.58371727406753    6.06752344189972    7.53245508791000

