77
CSD_code = QEHLIA | q = 0 | S = 0 | Stoichiometry = C29H42Cl2N2ORu | MND = 5
Ru        7.10070610198499    3.62705763056315   13.69363580926625
Cl        9.20543093480405    4.54780100082787   14.04289649191276
Cl        5.30899730930823    2.61154730388075   12.58260849462305
O         8.20437381376131    1.58168975997754   13.43542998914389
N         6.29115827290794    6.39831254241656   13.09995508407207
N         5.88167228992061    5.96725885971651   15.18768394351234
C         6.28715419609563    5.42923701773385   14.03603019548472
C         5.80465325692638    7.67584840227833   13.61049856196555
C         5.57801081623639    7.39042453844184   15.08967929933425
C         6.39916664852898    6.21459853100771   11.65136406791160
C         6.84612725628055    7.52224965165587   10.98667085873709
C         5.03307312177309    5.78118436910783   11.10313952995114
C         7.45344560233233    5.15335153396859   11.34656518799030
C         5.58399282047789    5.37400084981245   16.44336116017958
C         6.54324230012518    5.39077920435170   17.45929773819797
C         6.18375812322414    4.90715095029354   18.71072535081146
C         4.91204115079915    4.42077884331480   18.94471551692023
C         3.97882235956868    4.39969732205246   17.92584908881721
C         4.29328000776107    4.87995478638174   16.66137056044868
C         7.95011685253450    5.87294047833111   17.20682709049295
C         8.27831071565485    7.08819080270616   18.07695988943414
C         8.94616481675674    4.73839482259212   17.45377620061112
C         3.27091886392047    4.81745204089485   15.55225802187716
C         2.00136169063416    5.58731165834427   15.92422339262623
C         2.95149456952409    3.35844940676063   15.22193286795372
C         6.76287984204204    2.76845243715852   15.35193992165538
C         7.28383909574232    1.46979458834787   15.57574645709588
C         7.06062960965845    0.77580859451754   16.77715719720842
C         7.57817790254213   -0.48428335354010   16.97455813043855
C         8.32802176697734   -1.08402503659958   15.97333926081107
C         8.57126527364261   -0.42908820879214   14.77541847768805
C         8.05935781128766    0.84279500232842   14.56438369005269
C         9.06982716178902    1.11570652746517   12.39881187093749
C        10.52782471601708    1.32857241343960   12.80094172398181
C         8.73196172309764    1.89554615211702   11.13522574734607
H         4.88030821543438    7.96765280981021   13.10112414964439
H         6.55206277602914    8.45748913560446   13.45705442953194
H         6.25315518601632    7.95939722884965   15.73633610221645
H         4.55046997791500    7.58071077059883   15.41420906015140
H         6.08250964179725    8.29275384057548   11.04953605472256
H         7.04218038046426    7.33265372300720    9.93442788009255
H         7.76342507100727    7.88952444311329   11.44091599612418
H         4.74496286231425    4.82403047501598   11.53594264305908
H         5.07824799444786    5.67537358733142   10.02264821839386
H         4.26875926973531    6.51782100129906   11.34206264662254
H         8.44011194219837    5.50314164665013   11.65499742166803
H         7.46789554623676    4.94166738540962   10.27907778726505
H         7.21072797456452    4.20752999350298   11.86784973196927
H         6.90715151971638    4.90833824579807   19.51135094318951
H         4.64836634317011    4.04930594882191   19.92427005171515
H         2.99312663030924    4.00446895533957   18.11726060526365
H         8.04407734479700    6.15573067539488   16.15468694758025
H         7.55100518909407    7.88389144214725   17.92343894720912
H         9.26581326095959    7.46871564547766   17.82690060746027
H         8.27141720575548    6.82258342429609   19.13134074443336
H         8.92586025639693    4.40631358317706   18.48885415659968
H         9.95212009025306    5.07283353127106   17.21326132324561
H         8.70528350046050    3.89400249950220   16.80951564773617
H         3.69499957270078    5.26362597889512   14.64863272640377
H         1.31930824534065    5.61038765294229   15.07729987211630
H         2.23717913403714    6.61212410546842   16.20689460780778
H         1.48938448857394    5.11501717250184   16.75849570887552
H         3.85425047375805    2.85221260874512   14.88722162799597
H         2.21786085002786    3.30986955239708   14.42095999953014
H         2.55650450092032    2.83415209219306   16.08847739614428
H         6.15527475333008    3.13474353165675   16.17711550298662
H         6.47390363109758    1.25907829788704   17.54519393945318
H         7.40160187685693   -1.00612203147571   17.90284344085187
H         8.73335812447595   -2.07383446757545   16.12064553702009
H         9.15863750443450   -0.93416408477821   14.02506949148914
H         8.85665397787016    0.05171965243565   12.22236758451812
H        10.67813431504923    2.37832392032166   13.04922202852333
H        11.18365887564847    1.05926513510255   11.97747614355325
H        10.79007975065965    0.73236009810521   13.67179934859682
H         7.65372226969842    1.89241598539677   10.97344388029447
H         9.21188352073951    1.43426335645620   10.27605720607712
H         9.09420716106999    2.91789002747318   11.22624499237710

