94
CSD_code = QEHLIY | q = 0 | S = 0 | Stoichiometry = C49H39ClNP2RhS | MND = 6
Rh       11.78555128064304    0.33429308593152   16.18816340659703
Cl       13.99780822472308   -0.30750022036647   16.32420046414055
S        12.03368975882760    2.78302206170384   15.93043525024647
P        11.78010421930867    0.67502126128747   18.45183175536600
P        11.88673622743883    0.18522696854840   13.90617371693657
N         9.82601725561650    0.76959854652705   16.09986302904241
C        10.34421150531810    3.09783105046386   15.85054406645850
C         9.37914042805644    2.07067819593828   15.94056738895046
C         8.02599887403983    2.41895418775557   15.86127693023541
C         7.63552420931483    3.72751593889004   15.70201073206479
C         8.59128576031957    4.73635263693851   15.61655204186203
C         9.92525602487414    4.42248795008819   15.68974867007941
C         9.05116421930632   -0.26620520674242   16.20862424045620
C         9.66314361649950   -1.54928469449339   16.35937938831910
C        11.07668048596685   -1.56264266817416   16.37124093768426
C        11.71628757536484   -2.78487575625039   16.50153373268540
C        10.98402078765891   -3.95653232216923   16.62295622146351
C         9.59635547116262   -3.93479534106605   16.61666731926282
C         8.93197488228079   -2.73472243519673   16.48359569972349
C        11.79258213042849   -0.78785462703158   19.54370307363881
C        12.79357453971894   -1.72235125248156   19.29002829492601
C        12.90644379125785   -2.85414263335450   20.07434350891298
C        12.02664920784967   -3.06030774552210   21.12451430968810
C        11.04865640597776   -2.11979103901729   21.39860046144185
C        10.93108103798475   -0.98340544364745   20.61683662304830
C        10.30987848735342    1.62735485261314   18.94112087642634
C         9.06420647483480    1.00613433474207   19.00928141249544
C         7.92465136324408    1.75733383483709   19.22653418666961
C         8.01295559406928    3.13407960947120   19.35760993933736
C         9.24542006053664    3.75828334291629   19.27208536449305
C        10.39001264554462    3.01093162630981   19.06172259937725
C        13.12180661659816    1.62656468066317   19.24215879793906
C        13.07373126308304    1.77978831039158   20.62700605061966
C        14.05945633366644    2.49426868332409   21.27851805900112
C        15.10151876505166    3.05703171593395   20.55681927854252
C        15.15058565233624    2.90698684643552   19.18236583731915
C        14.16315654343462    2.19449225582878   18.52275349230810
C        12.02124552517710   -1.46557820178570   13.13848784670919
C        11.23247632673458   -1.91252859835257   12.08507004594008
C        11.44346920486879   -3.17169394434263   11.55011287003819
C        12.44309376101661   -3.98737442865269   12.05165152109748
C        13.24961006080480   -3.53415419570414   13.08287140530391
C        13.04380150716771   -2.27851263662400   13.62118684885397
C        10.39927122410151    0.93115349523221   13.17290753118272
C         9.19125845814794    0.23619777386360   13.19646525526093
C         8.02637693293958    0.85519405447793   12.78418766737539
C         8.05110583306050    2.17552710743969   12.36369276883457
C         9.24457854209120    2.87667352676980   12.35802491112400
C        10.41440504114821    2.26092239377912   12.76474539557712
C        13.22523220407105    1.01912838264086   12.98833896479057
C        13.19406118337847    0.95016645262427   11.59628450598456
C        14.18303691521358    1.56122123510123   10.85140211387667
C        15.21213488828383    2.23988213150086   11.48692107918761
C        15.24786904318731    2.30444483627249   12.86839493633356
C        14.25761202840164    1.69571847106103   13.62104185482974
H         7.26618775053840    1.65510185838834   15.92254066133480
H         6.58504190362691    3.96928108840304   15.64284107998149
H         8.28175022743055    5.76351418818831   15.49188843030111
H        10.68435856861165    5.18728189311452   15.62420470329498
H         7.96971112681523   -0.18189054112172   16.18511203382160
H        12.79445286723048   -2.84005006561432   16.51053689430938
H        11.50343409835020   -4.89872752646556   16.72442657024340
H         9.03999032601597   -4.85571903265910   16.71448246101939
H         7.85086775900059   -2.69865858701881   16.47375964970698
H        13.48493427698427   -1.54496485007456   18.47811097394202
H        13.68296955699019   -3.57592582644689   19.86824610061571
H        12.10794080089563   -3.94719273762522   21.73597335899167
H        10.37280021761853   -2.26742147368487   22.22911695692583
H        10.17225177542217   -0.25137783841432   20.85504436106732
H         8.99335752798610   -0.06622924683608   18.87746501800574
H         6.96215969248412    1.26904320613089   19.28436974170389
H         7.11975130609062    3.71973984684027   19.51676598461972
H         9.31545691451022    4.83237655703450   19.35887664533985
H        11.35066728332868    3.49978268520321   18.97559333744853
H        12.26135108728443    1.33910581700365   21.18939232552932
H        14.01733037407735    2.61165581664999   22.35196523812647
H        15.87349253699256    3.61203336215168   21.06992967207597
H        15.95965768289813    3.34525421347085   18.61705937883112
H        14.20356332956987    2.08274516104365   17.45009178987066
H        10.45675659727936   -1.28309892039459   11.67230423955707
H        10.82389010014585   -3.51464008590005   10.73364357140054
H        12.59773363465393   -4.97069356863402   11.63193424401893
H        14.04204539438973   -4.15996615568843   13.46603259696306
H        13.67774506431366   -1.91057933845809   14.41578249164054
H         9.17015035884397   -0.78679727077129   13.55088890788345
H         7.09343350184280    0.30954650262425   12.79896247976255
H         7.13797948959734    2.65929554237948   12.04994167522836
H         9.26342029424569    3.91043883668694   12.04634402362995
H        11.34355144300893    2.81392677008624   12.77916178352835
H        12.39116181041547    0.41968774332669   11.10197145694579
H        14.15388988825874    1.50825274028279    9.77253277791197
H        15.98490747044402    2.71617478387060   10.90116549857286
H        16.04863292577338    2.83066148011041   13.36618642812936
H        14.28836663657293    1.74822452546066   14.69849977762377

