38
CSD_code = QEHNOG | q = 1 | S = 0 | Stoichiometry = C13H21AuIN2(1+) | MND = 4
Au        0.70175593499758    3.08111016844998    2.39665487717809
I        -1.02227964602367    1.34041744513391    1.45341489373995
N         2.40667295156650    2.35532850316639    1.30057438088949
N        -0.55435372163210    5.15026466903140    4.29702439567276
C         2.07305324329800    4.30720444541823    3.17821275815387
C         3.27792116250874    4.30505944156941    2.48095341845324
C         4.35661742125710    5.04450735646222    2.94496472880185
C         4.23124835606795    5.79206039135203    4.10209307717855
C         3.03410987223957    5.80359524344390    4.79371062500278
C         1.95246274110048    5.05488722450886    4.33920567389551
C         3.33063149636459    3.50683554233496    1.21522684063013
C         2.15290274635303    1.83807085601309   -0.04991532439291
C         3.02880946334993    1.28923724478822    2.09954862996345
C         0.67250967228235    5.05456062300721    5.13338229275157
C        -0.45560959787660    6.29324172320202    3.37304422897658
C        -1.71123422914598    5.37019470951955    5.19060079050686
C        -0.77689983073429    3.89130373298458    3.54682999342784
H         5.28770422811857    5.03448589807257    2.40009394065292
H         5.06728174596056    6.36761705688147    4.46535337505446
H         2.93962681055109    6.38601549538965    5.69762746648735
H         3.00550376817710    4.14327636661120    0.38439690635802
H         4.34685260754231    3.16392877016916    0.99434511629195
H         3.09473012466033    1.60760216871168   -0.55217942743108
H         1.60843427977479    2.57443391307313   -0.63889464233796
H         1.55799285896767    0.92933636342710    0.00043562624151
H         2.32807197405319    0.46581660678826    2.22719387867913
H         3.31196521996588    1.67185022303876    3.07917987137877
H         3.92219322941173    0.90789331375392    1.59955297071641
H         0.60188496756220    4.13179686840086    5.71874703100981
H         0.68237315627095    5.89676304848892    5.82897305149097
H         0.36067529780833    6.13924583869675    2.67049065719400
H        -0.26889511030011    7.20894230383884    3.93123752357317
H        -1.38498584614748    6.39954734693482    2.81679811138617
H        -1.61644185114255    6.32747983826032    5.70065033986077
H        -1.76917268843191    4.57826687209753    5.93530202559142
H        -2.63348622804627    5.37063483009652    4.61216138660156
H        -1.64617632572501    4.04739446742734    2.90823936789573
H        -1.05525025500382    3.12519308945518    4.27236914247560

