140
CSD_code = QEHPIE | q = 0 | S = 0 | Stoichiometry = C50H84IrNO2P2 | MND = 6
Ir        1.16307577825311    3.23742990902024    2.37897826142370
P         1.39909467789358    3.16489942480549    0.01608524228338
P         0.93144176939976    3.32538686187130    4.73698300820901
O         3.13561643382587    2.50527053367417    2.29779620226031
O        -0.72176499637501    4.15417861270786    2.48875498911342
N         1.98540985698883    5.17564134829525    2.37609435742993
C         3.98664662536403    2.98764030575876    3.15028334150341
C         5.06483671338696    2.18234349900571    3.63608719689641
C         5.80692271847565    2.62771222468229    4.70890544927663
H         6.57247795460074    1.98534223147207    5.10304799289633
C         5.60338179781632    3.86587838399422    5.31960466354611
C         4.71431271042826    4.72131034998481    4.70384440637785
H         4.57937799164220    5.72041409147368    5.09406443029250
C         3.93576180194159    4.33428258721964    3.61088563277803
C         3.18139389184244    5.39385024965678    2.92886173261762
C         3.78291157764670    6.65610590190592    2.85234386168420
H         4.79371388069156    6.76021068222939    3.20433816425154
C         3.08719688775521    7.73580870886284    2.33663254934555
C         1.81674720158587    7.48023021660138    1.83883459360802
H         1.19877912588797    8.28279737167149    1.47255887634444
C         1.31317127161286    6.17839079452438    1.79789680123676
C         0.01815902539330    5.97669613571198    1.13518623172784
C        -0.26416446742480    6.79050043029919    0.03571932626079
H         0.54197860660357    7.37816698815710   -0.38075745228522
C        -1.50936030277012    6.82638146219195   -0.55744821968659
C        -2.53096181118574    6.12138463136655    0.08128851476111
H        -3.53176287456454    6.22116197362333   -0.29630324246078
C        -2.31643787041991    5.29419110326613    1.16262550122046
C        -0.97944357115337    5.08745822796516    1.62563993312307
C         5.40344724915832    0.86769149528298    2.94000003497332
C         5.69506629823243    1.18416680780231    1.46658780996300
H         6.54118771358077    1.86476081907089    1.38595018259749
H         4.82875006174861    1.65358231701070    1.01437133180904
H         5.92776787237207    0.27263986192223    0.91897035018241
C         4.23306950848526   -0.11687598421287    3.03306093131832
H         3.32932862111162    0.34682005323271    2.65286679770217
H         4.07421166204246   -0.41348084485560    4.06707977708400
H         4.44650086680531   -1.00925636065400    2.44705256789657
C         6.64324240658888    0.17823054525854    3.52040914447546
H         6.84733922523383   -0.72329849447088    2.94533254245141
H         6.48640343236271   -0.11759750117725    4.55544407977450
H         7.51966983846175    0.81984007788332    3.45933473208670
C         6.32746349267811    4.30434274702111    6.58339127721320
C         5.28227246006767    4.59528105228291    7.67074838387303
H         4.59436772892172    5.37604206990833    7.35681862916310
H         5.76984051257779    4.91778413689659    8.58884555213688
H         4.70399782048951    3.69805028055255    7.88275235401575
C         7.14349834098388    5.57293680950467    6.29768061217622
H         7.85496969314917    5.38831999564146    5.49537908497508
H         7.69467255365914    5.87613397455619    7.18584087809028
H         6.50140396723331    6.39781232377167    6.00066176994891
C         7.28336427912496    3.23513922647510    7.11872968374501
H         6.75144663893616    2.31362716869411    7.34394211171897
H         7.74766773932315    3.58931467339380    8.03745028051858
H         8.07465775931947    3.02421505113794    6.40313702180330
C         3.64384432289340    9.14798291110410    2.30101558413604
C         3.65772363127471    9.64276163273196    0.84811849024777
H         4.26590951641878    8.98380313912777    0.23112945890569
H         4.07706898584674   10.64535952522683    0.79819234666476
H         2.65474106677459    9.67426263813510    0.43104396607641
C         2.74109496312948   10.05309522305705    3.15077378155574
H         1.72290979745465   10.06578805986373    2.77118872405390
H         3.12097386407439   11.07251398509302    3.14372308023238
H         2.71661107899398    9.70144981914084    4.18050278925973
C         5.06949926297936    9.23078740398009    2.85199408214568
H         5.10631021046475    8.91882775373931    3.89336761333764
H         5.42010191070206   10.25948985036895    2.79823995323900
H         5.75065039891067    8.61238256898698    2.27169735177029
C        -1.72146784983369    7.63823533610320   -1.82662779353221
C        -3.16497979467320    7.57820263771855   -2.33277385188544
H        -3.46367396657432    6.55303375927903   -2.53921272268032
H        -3.25019288826164    8.14660625892282   -3.25726535928357
H        -3.85178419738618    8.01067946657524   -1.60894112451565
C        -0.80837826247601    7.07995545741253   -2.92852231662652
H         0.23663785043412    7.11890219502952   -2.63194284844410
H        -0.92528299801068    7.65580292199319   -3.84469293111923
H        -1.06454049513150    6.04309632161128   -3.13747959477460
C        -1.36993371179987    9.10918754655247   -1.56197437732240
H        -1.97544039987178    9.49879367360582   -0.74609912866800
H        -1.55909243676189    9.70903587149354   -2.45017894793151
H        -0.32267974809661    9.22318608281130   -1.29484925722400
C        -3.48294966533543    4.66206803342769    1.91723617090710
C        -3.43512009007001    5.20971984592446    3.35149561479473
H        -2.48301234512109    4.96291579426389    3.80822470060352
H        -4.23568128972185    4.78147125624080    3.95196931778123
H        -3.54517520732383    6.29303752166306    3.34624692132305
C        -3.38442057658346    3.13191889047693    1.94922071060649
H        -3.55107221135214    2.72417604773323    0.95445258472721
H        -4.14584601698145    2.72664252541647    2.61368158754880
H        -2.40783360171266    2.82134030353734    2.30621143034301
C        -4.84994843828342    5.02499219051937    1.32639338781328
H        -5.01453926798043    6.10027142347549    1.33424541228840
H        -5.62940178068985    4.56330522646671    1.93000615168940
H        -4.95322790671731    4.65372207829825    0.30906629637862
C         2.56750480193384    4.38913437092869   -0.74847058159613
H         2.47828452597328    4.30658036605917   -1.83575917652699
H         2.20536851963989    5.38093129794105   -0.46922080197463
C         4.02339419213637    4.23945001674272   -0.33169364239168
H         4.11820770124561    4.23079144152856    0.74947387270023
H         4.61284321981331    5.07015986265264   -0.71941509158686
H         4.44753719513720    3.31462623557114   -0.71476410202719
C         2.06932328515668    1.53860813121860   -0.55047039518020
H         2.94958544089131    1.35385420207445    0.06550659157004
H         1.32603541165597    0.79190530617599   -0.26669656002774
C         2.40981285789542    1.38970504328221   -2.02786777132113
H         1.52626052245326    1.49131963938847   -2.65356375315004
H         2.82686189245560    0.39895160144311   -2.20239823813697
H         3.14707768151210    2.12100413788466   -2.34894875100633
C        -0.00533701775617    3.43307248644586   -1.16433433240915
H        -0.37038655586636    4.44953493780222   -1.01320312277087
H         0.38928519775660    3.36929255995864   -2.18215249098245
C        -1.15093294969152    2.45270125238748   -0.97721166775306
H        -0.83715906778011    1.43196774689558   -1.18509576150926
H        -1.97212803833369    2.70145844187402   -1.64806603479623
H        -1.51242130352973    2.50682547952406    0.04419358584877
C         2.05741068441391    2.36045150098388    5.84720193131784
H         3.08108142783901    2.63338092188021    5.58777673923723
H         1.88385238915218    2.66763647310824    6.88206603118147
C         1.87665562223605    0.85749163158677    5.69569166598392
H         0.91311366737487    0.53389140649549    6.08281532778535
H         2.65588499340344    0.32773555896540    6.24127772086732
H         1.93814227692638    0.58487637099901    4.64665267625533
C        -0.74084340783000    2.81162014593773    5.33741299391848
H        -1.45731935398747    3.37896643633241    4.74395985136119
H        -0.86351973082980    1.76490315567760    5.05601247812529
C        -1.02793032883930    2.97291619889695    6.82492013864287
H        -0.33510534594891    2.39335948490137    7.43046716962385
H        -2.03450913570725    2.61519850312466    7.03708113677767
H        -0.97376824818492    4.01216503385088    7.13788937566928
C         1.13067481310020    4.98922965793495    5.53457234624306
H         1.12085297778967    4.84899872581969    6.61930160941982
H         2.12371657855503    5.35136722119538    5.26465569426305
C         0.08016820113449    6.01378282240492    5.12821567549914
H        -0.00191522091520    6.07606405930248    4.04742373942421
H         0.34767408797723    6.99987338094814    5.50736223608215
H        -0.89791682147001    5.75234001951439    5.52465623393631
C         0.35089988980558    1.28904176968206    2.32440278325769
H        -0.15185656860492    0.99259764757858    3.24306877615669
H         1.13276923301711    0.55185098059748    2.14119242761279
H        -0.38455205430170    1.17919561359283    1.52773394436772

