64
CSD_code = QEHPOI | q = 0 | S = 0 | Stoichiometry = C25H27BClN6O2PRu | MND = 6
Ru        2.53360181473894    4.40626937969515    3.38954416366444
Cl        0.53481522980657    3.74017433947773    4.46538006858792
P         3.19580959702650    2.18261719203002    3.50359161368858
O         3.73209218017270    4.96766702382231    6.06558818526623
O         1.27223365392941   -1.40337408267795    3.41409099820856
N         1.72546363220820    5.14417634059198    0.62573601884119
N         1.53287637521953    4.22471074325543    1.57918984523975
N         1.99316867078912    7.03903212977068    2.14171143467538
N         1.84313188949292    6.33779298107621    3.26775341651479
N         3.99917405470167    5.87677838405671    1.28459432060339
N         4.16046496898375    5.05925256574203    2.32361478818334
B         2.60076472431220    6.37613963584455    0.89451793018647
H         2.63566043311610    7.10843929076782   -0.03077423942754
C         0.59054980417104    3.39525180538295    1.15580870004127
H         0.23735428670496    2.59177696895777    1.77297408697562
C         0.16527580598133    3.77688642272548   -0.11647206280339
H        -0.58050544434984    3.30566326023481   -0.72223845039065
C         0.91198737213348    4.89631325836849   -0.41196436395267
H         0.91509915296469    5.52483090441790   -1.27932680627562
C         1.21344878669711    7.09767048034707    4.14938399215335
H         0.97786298308070    6.73039702015139    5.13129246079199
C         0.94208784232569    8.34060097754439    3.57671806267288
H         0.44382633411355    9.17186509670654    4.03038877228287
C         1.45442139412847    8.25740185927808    2.29979609093596
H         1.46752519646289    8.97617040603481    1.50574512216999
C         5.45696802156771    4.82187116966773    2.46212304953734
H         5.82254357757811    4.18964753322189    3.24971596721984
C         6.16299176422090    5.50600111961136    1.47385058299441
H         7.22144328495267    5.51729500043705    1.31720296308712
C         5.19390101318886    6.16524747418604    0.74764148602123
H         5.27926431541742    6.81093715931748   -0.10227944451868
C         3.30880299414998    4.72819731160907    5.02741853096345
C         4.46723430400382    1.57178293540252    2.34270471667363
C         4.44316399938305    2.10513284912798    1.05754912362782
H         3.71009167752992    2.86448921187265    0.81503070054479
C         5.33738192804315    1.67138785416239    0.09690467997537
H         5.31253568719317    2.09565435041364   -0.89614970394672
C         6.26557508609226    0.69276843284299    0.41236644592900
H         6.96998824452678    0.35429243722975   -0.33282489392592
C         6.28557757984298    0.14420208182687    1.68414974490928
H         7.00204113302662   -0.62684710551053    1.92784737238125
C         5.38988109591879    0.57634458658707    2.64677811588901
H         5.40990754103392    0.14063581332366    3.63545397432246
C         3.84576214414330    1.84382356835387    5.16686488593775
C         5.19592728315118    1.99874408683855    5.46897217636271
H         5.90236017208498    2.22834358576240    4.68242498942313
C         5.63659262679300    1.86902772819345    6.77366877964944
H         6.68670688459228    1.98596631161349    6.99916388859393
C         4.73330095295905    1.60543838758714    7.78964983602977
H         5.07969335411178    1.50952888457834    8.80800667672701
C         3.38300311455373    1.48995404336807    7.50093089868654
H         2.67358736999562    1.31384682829343    8.29589021678863
C         2.93654587572531    1.61572334503458    6.19854050382112
H         1.87919680356968    1.57134768105943    5.97878411680135
C         1.91995207038470    0.86852711323395    3.26614124349877
H         1.03753763299974    1.15258761393446    3.84784020276664
H         1.64642807483259    0.88011320213274    2.20634596233110
C         2.36393444418034   -0.54016686500324    3.63742171356719
H         3.21940177178528   -0.85428438956557    3.01660707508391
H         2.67339705777620   -0.58817157734089    4.69350104050934
C         1.54385068772093   -2.73430145646516    3.76451879883668
H         0.63946527226276   -3.30171134013956    3.55617956466057
H         1.79448792280386   -2.82252093854751    4.82926976269764
H         2.37558449700524   -3.14026041184313    3.17405010673594

