43
CSD_code = QEHROK | q = 0 | S = 0 | Stoichiometry = C19H12O8S3W | MND = 6
W         3.48007763734484   13.14434549145579   -5.96595224990565
S         0.86659202784752   17.13686830251590   -5.27988012589668
S        -2.39930165712206   14.78570468414011   -4.08991637848882
S        -2.39256381514469   18.98416596864915   -4.26179992350592
O         3.27652707388610   16.29475501125853   -6.07304453666082
O        -6.09865787723640   19.15780539805784   -3.00868895444608
O        -4.55347983600756   20.68229929268879   -3.63180879248636
C         2.68544338857517   15.14292435437634   -5.80658795301586
C         1.35466466865693   15.43545664446251   -5.37124467979037
C         0.32726673444275   14.58941234340904   -4.99348843630993
H         0.40255604695619   13.51761471226501   -4.97693879345930
C        -0.82298637950545   15.28681113373352   -4.63811608084029
C        -0.69508084066020   16.68112040068101   -4.73752285677492
C        -1.87219458000059   17.34473631799732   -4.36985370868414
C        -2.88636914041668   16.45308489692756   -3.99383556530565
C        -4.07337211365837   17.08994753804620   -3.62065797893368
H        -4.97318104580622   16.59994141189096   -3.29864010524997
C        -3.95738145720567   18.45456801201131   -3.71526566394659
C        -4.99427814584809   19.43842622581667   -3.40487763106746
C        -5.45527589193399   21.75187497977992   -3.34750052276137
H        -5.12138466702391   22.57766796005386   -3.97881749190081
H        -6.46689210118870   21.44539280269923   -3.63321238761240
C        -5.41569659527331   22.13233784317312   -1.87469940941704
H        -6.06367591161246   22.98676761575539   -1.70268937189591
H        -4.40109039143783   22.38922312512612   -1.57961063573366
H        -5.76192595451638   21.30005124634445   -1.26659556049698
C         4.61065627519308   16.37054973920990   -6.53897880470862
H         4.65825253609372   15.96677878160478   -7.55809331044004
H         5.26325810183654   15.76938700816266   -5.89334968835953
C         5.03012700426876   17.83188091414345   -6.52300753066580
H         6.04660222830743   17.92598090063066   -6.89269165312866
H         4.98270890780041   18.22365384623874   -5.51044242588156
H         4.36653766183372   18.41842651810335   -7.15274105897029
O         2.29777408318988   12.39400225031146   -3.15384888772896
O         4.60404436719813   10.21794529992330   -6.20280815098541
O         0.90007985909034   12.23396462865699   -7.51148701412224
O         6.15672714022970   13.67453058300953   -4.41253207818091
O         4.81511952313883   13.50924151374714   -8.78323473450357
C         2.69806455252318   12.69872805183179   -4.17781649956837
C         4.18813408963325   11.27722459193739   -6.11389835572830
C         1.82018203278257   12.59159809912416   -6.93970574517806
C         5.17504087942191   13.57736726897263   -4.99022783579102
C         4.31635158134453   13.47243629107030   -7.75559043146443

