45
CSD_code = QEHRUQ | q = 0 | S = 0 | Stoichiometry = C19H16CrO7S2 | MND = 6
Cr        7.91652875727529    2.26514851595546   11.45712118966230
S        10.28182271440166    5.19019811594129    8.59918293369628
S         6.75587059401167    7.15083101222767    7.53988931163550
O        10.57805001809484    3.06907952943160   10.17366794485058
O         6.58279866249736    9.44736207377197    5.76519698695229
O         9.40391761703199    2.25138446680439   14.07458864039062
O         8.69679716106339   -0.59516155618189   10.93196427110143
O         5.93487536708676    0.84159214869351   13.22209089206310
O         5.87722230561423    1.91935726966049    9.26424360609909
O         6.63235128618172    4.81443684779182   12.42668171998332
C         9.26624738656076    3.26698905780046   10.27759699823720
C         8.94670242491365    4.37485870399051    9.43252406438540
C         7.72746051356472    4.95858038667740    9.13366129999597
H         6.78608361121189    4.61934818220248    9.52480773099547
C         7.85895704889956    6.03773808117073    8.26266930058322
C         9.18364932176745    6.30259212616746    7.87775721248674
C         9.30773782078828    7.39297352182804    7.01446975656894
H        10.24128920543784    7.74457791753770    6.61657278686051
C         8.08355499012558    7.95837605001094    6.73887528827559
C         7.73754264961868    9.10710913740592    5.90272467555619
C         8.90090505070664    9.81966044962199    5.24688509026640
H         9.42780894741856    9.10382345483538    4.61052860163129
H         9.59432691628636   10.13861441569683    6.02932411236989
C         8.44089654331244   11.02025165812089    4.42581140709679
H         7.89491947420413   11.70598592625621    5.07627510520324
H         7.74500708797138   10.67945091802014    3.65717617812984
C         9.61239766640650   11.74982468984753    3.77528916898997
H        10.30582447556831   12.08642660698836    4.55008056825791
H        10.15380814590866   11.05957853082208    3.12352888460897
C         9.14274608509677   12.94954569445545    2.96225117543231
H         9.98849540110472   13.45882945159442    2.50619334379322
H         8.61692998970339   13.65777191026428    3.59845971340745
H         8.46537868403448   12.63246810868542    2.17268788485288
C        11.25678228369932    2.05031799757476   10.87975225809158
H        10.83192050214358    1.07378917866321   10.61328122835940
H        11.12816531353850    2.20343156424287   11.95917671370782
C        12.72750710901673    2.12000102527641   10.49813629257587
H        13.28156333456471    1.35007391462380   11.02625276270128
H        13.13493867127141    3.09329095786462   10.75798234589423
H        12.84350062767741    1.97110514897328    9.42800085293594
C         8.95532831149615    2.30211358256775   13.01754899619251
C         8.51358414356308    0.53234830860785   11.05852302186591
C         6.67759898112011    1.39142141987279   12.53974003768005
C         6.69868091975550    2.10041452795732   10.04283690751235
C         7.15972587829875    3.88778896969038   12.00639073807400

