121
CSD_code = QEHSOL | q = 0 | S = 0 | Stoichiometry = C46H66ClF5P2Pt | MND = 4
Pt        5.05900604672876   10.20755526052237    4.24081849633315
P         4.99296346347331   11.26740645304343    2.19270380643201
Cl        5.21534577788790    8.18387185791530    3.10443055476769
C         3.94275152796260   10.40070663488679    0.95605900956213
H         3.89869030764069   10.99960192667218    0.04074194022369
H         4.43565312419583    9.44986211962839    0.73618708597245
C         6.58878295691584   11.44228073421444    1.29994233930778
H         6.38704858877966   11.60447694649091    0.23632687384214
H         7.11480631536457   12.31052978196306    1.70120689638248
P         5.13306766701230    9.01785183695063    6.21672775361954
C         2.54736833554487   10.13333155293955    1.51002952915794
H         2.65121570921598    9.69539678423519    2.51097933727357
H         1.99987309881123   11.07399201208920    1.60753231930181
C         7.44653519435960   10.19593907230191    1.50442338999996
H         7.53396472095775   10.00951182357676    2.58111425140668
H         6.95566454730640    9.32629243265946    1.06282747663758
C         8.84000522762499   10.35751426368835    0.90440694547895
H         9.37167786177313   11.14843624858986    1.43928655425675
H         8.75650502775369   10.66490392884706   -0.14129065054436
C         1.75709802203797    9.17419628039992    0.62434829896022
H         1.67931769919328    9.58907676154896   -0.38399558221940
H         2.29801387123855    8.22771981426903    0.55473838763955
C         9.63811595965951    9.05815799264720    0.99069243579475
H         9.56772889003553    8.67727217284601    2.01004726574327
H         9.18967908630628    8.31408097090328    0.32870065148233
C         0.35952240950256    8.91383854861034    1.18087344734876
H        -0.20034072879800    9.85151004238910    1.21994345766699
H         0.46002068432530    8.54500963099951    2.20226489384460
C        -0.40770264415600    7.89819571828668    0.33803211159804
H         0.16515405924736    6.97115116640579    0.28294021901964
H        -0.49661949611799    8.28242018694899   -0.68160395917901
C        11.10461485963708    9.25842881211822    0.61558044025864
H        11.57722577405833    9.91457680156526    1.34897797743155
H        11.15672157303426    9.76590914130191   -0.35143269616823
C        -1.81474609379511    7.60362951277513    0.86368998192538
H        -2.29681279191965    6.90065286429026    0.17956556480247
H        -2.39616241863267    8.52920794077551    0.84710647454770
C        11.89157951062650    7.94956343228257    0.50923447284369
H        11.50106424034631    7.37502802082305   -0.33479909893529
H        12.93471623463774    8.18989869199936    0.28831199534719
C        -1.86420666250022    7.02681894715651    2.28045641322231
H        -1.44506174754660    7.75252959573396    2.97662328579915
H        -2.91203054741957    6.88022280795482    2.55560408696252
C        11.83404056456907    7.06460812087330    1.75576516403379
H        12.39779894891036    6.14967669121151    1.55500398287571
H        10.79876397633101    6.77701098664663    1.93510285658587
C        -1.12961446242505    5.69499549662079    2.41271857502029
H        -0.08088390594991    5.82164087392275    2.14686444037185
H        -1.56308875793084    4.98338901951553    1.70495220741044
C        12.41124536238821    7.73282923819923    3.00127958764198
H        11.85856551556165    8.64525798497386    3.22290181359296
H        13.44631103891287    8.02082451862448    2.79902593396697
C        -1.21318772332788    5.09145984683919    3.81585841056367
H        -2.26168126455913    4.91000775279465    4.06560777872609
H        -0.70680978722633    4.12281130156434    3.80092697913342
C        12.39656076871852    6.82467424675121    4.23316846151385
H        13.00665512598884    5.94130426545904    4.02785883859730
H        12.86389196879945    7.36115908560395    5.06316519390260
C        11.00613803271041    6.35786679190966    4.67126747462128
H        10.55227803883753    5.76111333719579    3.87840214848787
H        11.12277241384866    5.70391468315663    5.53961364779626
C        -0.59289392460301    5.95002345708176    4.92125610026396
H        -1.18115721120871    6.85967425094823    5.05605970539027
H        -0.64786874226744    5.38922813785332    5.85816436720993
C        10.06538142692871    7.50207209931542    5.04056730607798
H         9.93325750061272    8.16237239045255    4.18264936307935
H        10.50797975941162    8.09089134656404    5.84784958506751
C         0.86275471022572    6.32676290097886    4.65527596705569
H         0.91790834688506    7.00209224563069    3.80084457420388
H         1.43254500161277    5.42943003557303    4.40400675560091
C         8.69158269371004    6.99372236473784    5.47098702058280
H         8.27028234112248    6.37797407692888    4.67308738081465
H         8.79431995528459    6.36482190105971    6.35919915425990
C         1.50722444008627    7.01442924914763    5.85729423017238
H         1.61562308410263    6.29527798141924    6.67336480013254
H         0.85617261661417    7.81810922644697    6.21016354977192
C         2.87223030590005    7.59560171241409    5.50105177622920
H         3.48678017593194    6.82627657365618    5.02914550087150
H         2.74337635928833    8.40339373622663    4.77127521345035
C         7.73407851487356    8.14414807874910    5.76895160371172
H         7.61393998387966    8.75474902890622    4.86490384610553
H         8.15915906753281    8.77779860677954    6.55116992536492
C         3.58888786044931    8.16210703276064    6.72447048159659
H         3.83822365493439    7.36519531394638    7.43233751629405
H         2.93940230344456    8.88828328550770    7.21687897327384
C         6.35790108677245    7.64549390056120    6.19688277263176
H         6.39330329291174    7.18216986549768    7.18808928016182
H         5.99527392933254    6.91070726124747    5.47299876933935
C         4.92293714665242   11.97218978930475    5.23199805993153
F         3.11717971535747   11.20419257574265    6.52985597401909
C         3.97838514964023   12.20294907989764    6.22426628440060
C         3.86783146229372   13.39701128818677    6.91997444062449
F         2.93828904829745   13.55045914709309    7.87594696106635
F         4.64085542364364   15.60935898352244    7.27093797984228
C         4.73153582015231   14.44263756786692    6.61711748656175
C         5.69031808784147   14.26289700404451    5.62744789305722
F         6.71694382836891   12.89100939718368    4.01867643216875
C         5.76662179276640   13.04444547015202    4.97045500079871
C         5.67185961396044    9.97028531435669    7.67146593727387
C         4.24902738888412   12.92869784732322    2.20470289442254
C         6.70115212706982   10.88829142085135    7.47744942700426
H         7.13622230731515   10.99040117741238    6.49070358898631
C         3.13515118438286   13.11488110748087    3.01979254896763
H         2.76018461608858   12.27880503916203    3.59750179682988
C         2.52565758302834   14.35151136974515    3.10703626186140
H         1.66486753157486   14.48586474450758    3.74525076994692
C         7.15071858717587   11.67292374404846    8.52173523903703
H         7.94706887135237   12.38412194377420    8.35931209940745
C         3.02867569873227   15.42008722135586    2.38200512598012
H         2.56332660686230   16.39135528318660    2.45694739462629
C         6.56957985035685   11.55189877987745    9.77400182501531
H         6.90879292416771   12.17225729761496   10.58987046697807
C         5.54983423181426   10.63771274739785    9.97565198644553
H         5.09536903961961   10.54328873555008   10.95081777643606
C         4.13208819769838   15.24115482793563    1.56547595336299
H         4.52551227399421   16.07331966744380    1.00059071982678
F         6.53056517900519   15.26279244305663    5.31820328253973
C         4.74097093203309   14.00102099440923    1.47297381168566
H         5.60319475442424   13.87725542026913    0.83576290995906
C         5.10195636095008    9.84654656242771    8.93128616001894
H         4.30278703426690    9.14156817930291    9.10202206220493

