116
CSD_code = QEHXUY | q = 0 | S = 0 | Stoichiometry = C49H59I2LaN2OP2 | MND = 6
La        8.36313787842663   25.67672590985542   14.44526139781719
I        10.54463050460847   23.69260213596904   15.04094366725571
I         7.13513988578644   28.25948070256723   13.42721568689042
P         5.95419917271029   23.66022296651921   14.22147458044164
P         6.55361084308838   25.15278325282912   16.93686702992334
O        10.61251555180394   26.97115240041244   13.33389719117832
N         6.86471626336546   24.43291481874362   13.15034714486985
N         7.73162742769705   26.19864574825601   16.62831124285005
C         6.74744457801522   23.79899580895329   15.80173690299669
H         6.36889134513857   22.92360609156669   16.35705960302698
C         4.19416818917674   24.16638705856277   14.25181054494998
C         3.21810042778503   23.37177037158509   14.84544028132292
H         3.49306270068940   22.42483189038930   15.28999856660158
C         1.90346415945694   23.79563064341797   14.86852680997406
H         1.14516000386100   23.16578188021145   15.31124952703716
C         1.55772185229736   25.02556444981917   14.33112500578350
H         0.52709291281168   25.34793061906219   14.34178332843162
C         2.53711912221587   25.84946254771431   13.80340599704095
H         2.27939399418145   26.82381759145293   13.41586224715618
C         3.85239325316581   25.42530379900500   13.77317679872046
H         4.62456207941461   26.06878874007647   13.37506144693874
C         5.92920084438426   21.84713299768680   13.98447797244366
C         7.11394218377775   21.18975247840908   14.29920699467436
H         7.93982589289940   21.75380049395119   14.71258913738729
C         7.23775142942972   19.82930038759145   14.08715274421997
H         8.16110731448140   19.32872908112640   14.33817116381460
C         6.17989371983596   19.11617540994322   13.54748400956647
H         6.27171632923038   18.05307989747175   13.38070480642683
C         5.00623927053106   19.77010228700309   13.20969843089663
H         4.18478375428620   19.21865941348565   12.77515627241250
C         4.88105689756507   21.13207117748752   13.41811059308354
H         3.96846618076514   21.63809707494330   13.13175089541662
C         6.84954734514052   24.32715734225349   11.68387839029593
C         6.68579985460776   22.88450627798230   11.20071732136209
H         7.45014859302197   22.25380392998341   11.66373251546074
H         5.70736359649608   22.51778283802680   11.51830791380194
C         5.74298729706300   25.17296064545963   11.04005540762786
H         4.77067879693247   24.79379308852747   11.36572180681018
H         5.83100465035738   26.21337756859702   11.36013154619925
C         8.21335080276585   24.84499162617089   11.18896173855847
H         8.34269043939499   25.89058307010616   11.49981228105399
H         9.01351012679165   24.23601140696057   11.63091417447906
C         6.78236025575234   22.80690159533454    9.67832607469369
H         6.66346241138342   21.76147496646066    9.37145166693434
C         5.67392099157953   23.65461815066019    9.05723153555710
H         5.72717271938568   23.59930519131138    7.96761579394265
H         4.69720514915355   23.27376908437203    9.36501096986025
C         5.83761740810198   25.10200165418528    9.51626406461971
H         5.03996087022526   25.71672630892425    9.08478179200826
C         7.19377031320785   25.63362067479368    9.05685299031544
H         7.25627102454278   25.60344034083814    7.96699656529305
H         7.31127175891373   26.67320884644766    9.37155883020949
C         8.30040404262151   24.77413151263180    9.66491876479391
H         9.27859600404309   25.15254050527881    9.34369149578562
C         8.14182300518576   23.32401399537189    9.21510038052014
H         8.21423171518052   23.26107126628544    8.12716669816726
H         8.93925221675252   22.71108234355450    9.64157420928745
C         4.86099847424322   25.85639200814623   16.96748415604644
C         3.80453924926344   25.11664108391039   17.49127000187243
H         3.98939228081280   24.12708535798350   17.88827071653574
C         2.53019618095693   25.64812790418560   17.50726637198378
H         1.71655491002585   25.07699100806006   17.93071857184961
C         2.29365887062622   26.90817456120455   16.97967682332770
H         1.29701080303637   27.32333614675501   17.00378955522482
C         3.33092686006405   27.62404133968337   16.40784189297932
H         3.14931419819922   28.59438935974007   15.97041083307059
C         4.60836433430222   27.09501537445621   16.39377774155718
H         5.41946173873646   27.64649507725457   15.94275386158569
C         6.72484110980277   24.32674316031977   18.55496125931768
C         5.98334565116765   24.65683081330963   19.68261272913904
H         5.20659030594631   25.40744672190128   19.62026760350871
C         6.24585897111364   24.03034943887659   20.88817326722516
H         5.66251281279335   24.28534278134926   21.76128937426553
C         7.25624674468724   23.08689717749997   20.97867335894532
H         7.45707820595711   22.60199784270396   21.92255922088461
C         8.01612936940592   22.77563588373337   19.86241310060104
H         8.81486987181685   22.05232926090263   19.93334644008684
C         7.75551151036729   23.39750660914018   18.65601409218139
H         8.35307458339643   23.17128498348256   17.78222558848326
C         8.30288947260663   27.22682870710176   17.51045622042829
C         9.51411826515628   27.83179387679763   16.77581640082642
H         9.19294161672555   28.28726771724043   15.83175523520687
H        10.23570995860127   27.03084274463333   16.56579330413069
C         7.32006792058271   28.35521393037190   17.83635181236469
H         6.45424612470527   27.93464422934531   18.35685419689150
H         6.97187154489753   28.82065749976407   16.91154921354544
C         8.81096179401385   26.62445827498090   18.82569443505771
H         7.96606710800424   26.21720859410537   19.38170010403980
H         9.49756552638529   25.80155814731467   18.60684073187135
C         7.99851704303449   29.41579854739775   18.70268495160703
H         7.27308469069381   30.20598870661977   18.92647079957727
C         8.49226665652077   28.79057835540759   20.00559340027630
H         7.64971889252646   28.37325636392993   20.56224498057115
H         8.96234396950272   29.55354806810094   20.63018469225818
C         9.49721738166179   27.68668310235500   19.68155557460328
H         9.84385238274951   27.22021237604757   20.61067269097235
C        10.68704987553824   28.27795253588442   18.93079656838439
H        11.41709056297201   27.49462654856293   18.71355472667078
H        11.17908630482018   29.03459575638110   19.54576710940206
C        10.18769161541057   28.90436438169917   17.63172966030826
H        11.03527571614309   29.32356826474258   17.07609805540266
C         9.18199537496026   30.01153591993232   17.94188809365468
H         8.83447054949870   30.47109227864515   17.01389545338124
H         9.65914929291745   30.78803223397741   18.54354847287773
C        11.93872833281943   26.89640538399120   13.87346665321802
H        12.45686554326644   26.02239043854794   13.45866457857574
H        11.86538758551767   26.78673904511988   14.95583312646485
C        12.61979884795418   28.18521726962505   13.43815218977894
H        13.70296094392752   28.12197010904631   13.49399681804562
H        12.27463245317821   29.01713247197324   14.05287417874582
C        12.09643244256565   28.32010196316078   12.01081329399822
H        12.08183133761325   29.34868817835449   11.65999663253559
H        12.70621983258401   27.72613461587261   11.33009243025313
C        10.68335254307696   27.73607723141962   12.11377752600173
H         9.92798314324797   28.52452738991504   12.17106908887412
H        10.45394296542715   27.08368048984947   11.26413708979037

