57
CSD_code = QEHYAD | q = 0 | S = 0 | Stoichiometry = C22H28N4O2Pd | MND = 4
Pd       10.54887337297516    2.45673810401005    1.40930096415208
O        13.17779507664797    3.47212718690363    1.15468268429104
O         9.73403305748122    4.54268971637642    3.06786093930531
N         8.60539622647840    1.89469667825485    0.49308082855078
N        10.87495420044980    0.48684822762306    0.50964699309107
N        12.77740630321275    2.46270271900939    3.13866691798211
N        10.19057353244444    5.24387603465287    0.96824710620160
C         8.73340270894201    0.94972639030373   -0.45558093488669
C         7.66143824870511    0.63166312623288   -1.29426086553077
H         7.75586171879015   -0.14210035041906   -2.03889686440989
C         6.46470131424462    1.30604852430379   -1.15014708028181
H         5.62618913194094    1.07122996412998   -1.78878143401291
C         6.35307865147773    2.28264522703851   -0.16747175437913
H         5.43270530817077    2.82519477811446   -0.02220930778958
C         7.45499260432395    2.53797595552764    0.63075666396872
H         7.41835073022149    3.27966284857432    1.42139797604533
C        10.04253346578890    0.28408478609396   -0.53228908508779
C        10.42642553649234   -0.50669695757693   -1.61739441456513
H         9.77064360599728   -0.63256202950235   -2.46394878437336
C        11.66913895455493   -1.10954333501545   -1.61345747674369
H        11.98317289940727   -1.72044364709675   -2.44640062934297
C        12.50614551351035   -0.91295671743764   -0.52163405777957
H        13.47947852959712   -1.37409129412579   -0.47555328430519
C        12.06643183248118   -0.10061520260151    0.50800743095865
H        12.68992296000568    0.08436294469451    1.37555112395390
C        12.39642666807359    2.93249545963947    1.92638574436523
C        11.84741493376544    1.88170390867888    4.08663122679551
H        12.27218295783740    0.93822270251736    4.45769950918538
H        10.88387587584438    1.67048193581184    3.56145187308829
C        11.60769334579173    2.84019081702861    5.25473611567826
H        11.11444462593698    3.73430986553588    4.86853683390038
H        10.94573423745416    2.37037358297041    5.98391689103999
C        12.93926132378642    3.21126307348142    5.90339713988273
H        12.77595436002819    3.93191443583994    6.70664538799504
H        13.39523736448896    2.31820074853934    6.34090912226613
C        13.88065727226988    3.79914327844015    4.85487030386080
H        13.44894588928546    4.71887293378532    4.45608185940332
H        14.85019482077840    4.03529783469540    5.29708319158989
C        14.06527977756803    2.80716478799824    3.70672203966462
H        14.55282103151941    1.89442163453079    4.07246317163981
H        14.66784235459369    3.24064523170473    2.90539461740714
C        10.15496217190515    4.31198123818018    1.94073083893831
C         9.66314388895394    6.57837343569711    1.16919344278952
H        10.44584331713306    7.31291291669487    0.94450262586811
H         9.38159137545696    6.66450441241295    2.22104715407123
C         8.45756054953854    6.80372359034836    0.25598979818918
H         7.65982607923408    6.11542871039179    0.54401387805631
H         8.08892222375626    7.82334073894630    0.37893860665986
C         8.84863855018798    6.54973741517140   -1.19836239228380
H         9.59727235172715    7.28396833133423   -1.50536562393913
H         7.97819373180106    6.66597819077402   -1.84764633589554
C         9.43194927757695    5.14555909264921   -1.34426968346514
H         8.66664363958837    4.40303880140600   -1.09906201056549
H         9.75999224864224    4.97335378391740   -2.37070613965486
C        10.61473664696362    4.97506625739197   -0.38767869366906
H        11.01928084875899    3.94314428941651   -0.44112420229845
H        11.41463077540595    5.67622288599163   -0.65479994557812

