53
CSD_code = QEJBAJ | q = 0 | S = 0 | Stoichiometry = C22H22MoN2O4P2 | MND = 6
Mo        4.38349344358073    1.30858253389232    6.22006999288112
P         3.79782146954108    0.54355592690001    4.03518074691840
P         2.10997940284069    1.99274072833068    5.96419177288555
O         4.93087363702507    2.22814595171103    9.11717522436205
O         7.30135582391607    0.32285498030977    6.14282016737101
O         3.79842149973633   -1.45955666555997    7.46474804183622
O         5.62875016872999    4.03018464172796    5.44777725269376
N         3.19477011397302    1.66555961392268    2.89161599096059
N         2.61410391902354   -0.63466776751094    3.96924241229393
C         1.75335368534580    1.87213230594529    2.98865584748464
H         1.25250223164360    1.05217684115911    2.45901095460635
H         1.52159707930698    2.79213820711306    2.44237080422252
C         1.15471321939031    1.97840407108495    4.38600653373800
H         0.29881325324550    2.65336199185310    4.40109223906234
C         0.95462956141626    0.75484199025305    5.27160362906368
H        -0.02502875895709    0.66773431599783    5.73936316575795
C         1.50226083668250   -0.61787196440902    4.90744128665131
H         1.77808408146536   -1.13237349371809    5.84005381473131
H         0.68656793084857   -1.19783335062625    4.45876213457930
C         3.93984857966307    2.90778986294255    2.82577503982722
H         3.79087499227724    3.37216874917179    1.84701376588947
H         5.00232303270287    2.69177537383854    2.95425538151948
H         3.62747560739297    3.62171408352548    3.60048926216213
C         2.40380278761109   -1.43914057649697    2.77924358696329
H         2.36300823194628   -2.49990217986092    3.04447831977075
H         3.23281648343758   -1.28511468396089    2.09120039120430
H         1.47316239371367   -1.17944592950430    2.26159233797503
C         5.13509071006404   -0.24321058640095    3.09500223898141
C         5.53580164376338    0.12041384678886    1.81547793448900
H         5.00472108738221    0.89796507632080    1.28604442650058
C         6.60723298130639   -0.52495792558497    1.22140659306266
H         6.92375140835756   -0.23703901747184    0.22918927551168
C         7.27328129178005   -1.53559513050665    1.89401329861753
H         8.11128382335126   -2.03211412373806    1.42753112325088
C         6.86583105997101   -1.91170674798495    3.16520260933139
H         7.38198182805170   -2.70380537682639    3.68709123181147
C         5.80475960508256   -1.26229036163448    3.76511770798209
H         5.47465743172942   -1.53955494549703    4.76018541701957
C         1.14785799520699    3.09168320686462    7.03792519026207
C         1.90972606675891    3.91157479682459    7.86701028705487
H         2.99111095376791    3.84135799552281    7.82487534920416
C         1.29699013874815    4.80191670521708    8.72892990736039
H         1.89647604699042    5.43393603204441    9.36692536178533
C        -0.08516670833734    4.87869172081800    8.77211991991696
H        -0.56883613633927    5.56969669788439    9.44622903240474
C        -0.84932960036947    4.06656790093212    7.94913462348391
H        -1.92758697268880    4.12539493173220    7.98400819562974
C        -0.24091655886317    3.17780796117740    7.08222103024324
H        -0.85576189466950    2.55221086831949    6.45041985372541
C         4.71709821020654    1.90625784200326    8.04114749025334
C         6.21643280341381    0.68044447304833    6.18402549315238
C         3.91242604930693   -0.43808948116538    6.96492259549355
C         5.09071202852721    3.03988808328092    5.64071371605844

