78
CSD_code = QEJDAL | q = 1 | S = 0 | Stoichiometry = C30H44ClNPRu(1+) | MND = 9
Ru        7.53290290653296    3.08608070134948    3.26402664438914
Cl        7.12408427662967    2.90615727422862    0.95875021067504
P         7.13141111745066    5.35453837159472    3.18824703030720
N         9.52120892756100    3.42132255346891    2.44552397633235
H         9.31029601961458    3.50666241329267    1.43788517924495
H         9.97435175669930    4.27824329309457    2.77441466130627
C         5.67274152357221    2.45250459804975    4.53290187159665
H         4.65523176029456    2.82468396294093    4.58345306054986
C         5.98666106864798    1.38938400249858    3.67890959960113
H         5.22055452164568    0.96908034094260    3.03579831414209
C         7.26094897888788    0.77625934259662    3.74136791610344
H         7.46666747894205   -0.10824309246402    3.15260680421117
C         8.21253190576613    1.26462534018036    4.63896088628970
H         9.15879139956773    0.74966452627247    4.75383856529227
C         7.93830070883969    2.39783348222459    5.43354603053375
H         8.66782697883717    2.72854921641318    6.16412377465952
C         6.66101806580402    3.00059513985523    5.39778352623455
C         6.28862506177799    4.09330190989761    6.35882328601839
H         7.13402216643837    4.31011605812704    7.01559920181367
H         5.46667614200192    3.72920011352807    6.98217238609107
C         5.84010095297519    5.39248679562019    5.67777159081713
H         5.50217884171458    6.07543230720199    6.45896522386786
H         4.99067808924302    5.19680705651466    5.01753428848673
C         6.96155611374215    6.06200917552468    4.88174756052653
H         7.91088454708643    5.97118830529973    5.41426284424585
H         6.73910336638338    7.12417390920751    4.75658225097131
C         8.12715180416235    6.61439971516089    2.23031937420307
H         8.55602652634582    6.11402281586382    1.35314663875582
C         6.83448986203800    7.35931592654267    1.83517618944718
H         6.72409965142166    8.29158139735975    2.38703424971115
H         6.78320382172272    7.58588158404458    0.77283521243220
C         5.79603057740140    6.30549152155150    2.28167456861770
H         5.05958619470289    6.70677564712396    2.98666648839214
C         5.05216778669203    5.58794027368542    1.16149116305504
H         5.78093234018116    5.15273489585329    0.47109369649342
C         4.14628725815610    6.54886695820079    0.38802936858031
H         3.41514823905823    6.98623566954837    1.07237528596467
H         4.72906066386334    7.36440757676520   -0.04219509190592
C         3.41831189296026    5.80061400934146   -0.72615957706363
H         2.77234842569294    6.49154760625248   -1.26963311191240
H         4.15149995952393    5.40195324530431   -1.43023696429015
C         2.58954546930836    4.65427350625808   -0.15646345455306
H         2.10056875990823    4.11210597467427   -0.96664301517403
H         1.81014299706602    5.05739616654109    0.49427861579303
C         3.47520425127101    3.70353125882677    0.64192862225071
H         4.21297458220949    3.24702520369955   -0.02038126217250
H         2.86939198906102    2.90434039175120    1.07415837734234
C         4.20068939244590    4.46319283665076    1.74663909470306
H         3.46920301281488    4.88459567013821    2.44200210027922
H         4.85491163685979    3.78305654101016    2.30408196058620
C         9.19425752248134    7.44801133788377    2.93390841496875
H         8.73298669843207    7.97233223727376    3.77709130018101
C        10.33459054727093    6.58669370200438    3.47453442338843
H         9.92570509556533    5.82229277954915    4.14816008970057
H        10.84334145094981    6.10219739198856    2.63539593218197
C        11.35297559414147    7.44764450029829    4.21894119159836
H        12.16106369026353    6.82148077203235    4.60169900820926
H        10.86994955704071    7.92933833980557    5.07147334192112
C        11.91874978078793    8.51295803719307    3.28447057408325
H        12.62215036265982    9.14390807800426    3.82820343883466
H        12.46401634250452    8.02969493404044    2.47096319262802
C        10.79583899689434    9.36781815221899    2.70568049045914
H        11.20918135557906   10.10017711302315    2.01182717253553
H        10.30279061088432    9.91447307572700    3.51227523514111
C         9.76991300786688    8.49986542829421    1.98040375719232
H        10.24641560765177    7.99989215707933    1.13447416003622
H         8.96858265481367    9.12716863932069    1.58901207463137
C        10.35506667487509    2.28913556990508    2.67569200141177
C        10.19886388597553    1.15157048088711    1.88770472056307
H         9.46696307961797    1.15412058838051    1.09143704751352
C        10.97700234483743    0.03538034176631    2.13424485871848
H        10.85736104968736   -0.84580527922669    1.52357131198720
C        11.91607260526123    0.05112608792519    3.15458836323576
H        12.52426404873006   -0.81967341657286    3.34119704803879
C        12.08198340848959    1.18901298038165    3.92786371696611
H        12.82150481685786    1.20681184425522    4.71319416290251
C        11.30553345063666    2.31025978926879    3.69136579665780
H        11.43584398771799    3.20187084767231    4.28891196046733

