114
CSD_code = QEJFOC | q = 0 | S = 0 | Stoichiometry = C40H67N6Y | MND = 6
Y        11.21852956411547    8.18707024231365   10.46959787475591
N        11.29496360835380    9.73107061076639   12.15254758668651
N        12.12216792865750    6.69927823904490   11.95719553137179
N        11.62921137011169    5.87978622057809    9.15934936870181
N        12.59099876419498    8.79727090502819    8.88389377221765
H        11.96500528228967    8.92689911494409    8.08739925322530
N         9.25586855454511    8.73016980298766    9.34035687771218
N         9.04487948513662    7.17661422221961   10.97743369201763
C        12.02685679690977   10.61220556557991   14.34390886677199
H        13.08217389261271   10.85592460081346   14.46386204187890
H        11.66388276545697   10.27641565744730   15.31357411142585
H        11.49014772180380   11.51122594973793   14.05521423710184
C        11.88686917731994    9.50585466478106   13.31314797776788
C        12.46484937426005    8.30133408313237   13.72868052428892
H        12.91011751065169    8.37176754539940   14.71244340249990
C        12.59034934368211    7.03398975616825   13.14406095050154
C        13.32744939179876    6.01489173939538   13.98907842595520
H        12.65369700840969    5.21475679732429   14.29598763905393
H        13.73664952804898    6.47189774283984   14.88466739546370
H        14.14575640947582    5.56762382471037   13.42647798924388
C        12.35488383674338    5.33727546389566   11.50127285531123
H        12.12020068212925    4.60645307080106   12.28877862295456
H        13.41583645608323    5.20172685736672   11.24190597278896
C        11.47700316289378    4.97326576662508   10.29912003693722
H        11.70190632879442    3.93236281694259   10.00347328282798
H        10.43587807915264    5.03076776192283   10.62064809107038
C        12.90334107741646    5.64004728918528    8.48677954350064
H        12.95893987165688    4.61442833806099    8.09039586754621
H        13.72584031428926    5.79775981434193    9.17753724680088
H        13.02171814374717    6.34266327018960    7.66423228663873
C        10.55116685084826    5.64077178527375    8.20178877670497
H        10.56091900827985    4.60215096233512    7.83544087056885
H        10.67068041941687    6.30808653672434    7.34889542963493
H         9.58798423601426    5.84198601922717    8.66831789995926
C        10.66580444660174   10.99363025742021   11.94457763240959
C         9.34218153854229   11.18943749719547   12.38315824472248
C         8.76191755436876   12.44311679758489   12.24895112286838
H         7.75823899726839   12.60751445004497   12.60951160530142
C         9.44959560225952   13.49370899364750   11.67419856758870
H         8.98770956083499   14.46652147061890   11.59167749352117
C        10.72904897719389   13.28580173630084   11.20036658366799
H        11.25994042542068   14.10544127689016   10.74210161596053
C        11.35274918565367   12.05114180341394   11.32086542762719
C        12.76311831066378   11.89082648626503   10.79978247405299
H        12.99594348784226   10.81949341284368   10.75665113667231
C        13.76573058832827   12.58402554190259   11.72715783246423
H        13.55553766613093   13.65063305565746   11.78110741229807
H        14.77504138625001   12.44938668074572   11.34473465335312
H        13.71822815123798   12.17881323928217   12.73380675787360
C        12.91866090820428   12.45703604947313    9.38713178071716
H        12.14035098799605   12.07395691646251    8.73330152046301
H        13.88274147859628   12.16099564978377    8.98159441724235
H        12.86723977994090   13.54339710567396    9.38541891104235
C         8.53540603905054   10.06517907370142   12.99487599772103
H         9.03651260784935    9.11956694566897   12.75576660026355
C         8.44976526600419   10.20469013474427   14.51716129400822
H         9.43256025152312   10.12480823408180   14.97010725318009
H         7.81778189095944    9.41983312077110   14.92839084416085
H         8.02260830377791   11.16878236719704   14.78702143481989
C         7.12213467111477   10.01617387258949   12.40840331027415
H         6.51757825059622   10.85049804254228   12.75639441411928
H         6.62600690624086    9.09798990581684   12.71652517173978
H         7.16050753110377   10.04359275860896   11.32231931984344
C        13.80482242073637    9.31656782977443    8.53819006471289
C        14.94640573597084    9.15903802585603    9.37180320264289
C        16.15855336688150    9.71754267140471    9.00872035594796
H        17.01216743799691    9.59795583053863    9.66115212485144
C        16.31923861267889   10.40702140960048    7.82312174316265
H        17.27606424440443   10.82928389568693    7.55368860563539
C        15.23279954079067   10.52809528448980    6.97576909670007
H        15.36807185942483   11.04192162440850    6.03657264586942
C        13.99166172992366   10.02018192453641    7.30775601119069
C        12.83973824342573   10.19397049313939    6.33299172129984
H        11.90817840104989   10.30735313921513    6.90245423040396
C        12.94492663069976   11.44652031219656    5.46082504564912
H        13.16654528498346   12.31946619844284    6.07027370830415
H        11.99828152453992   11.61425677296104    4.94884955493868
H        13.71672609398587   11.34117434993543    4.70243685760027
C        12.71846457753084    8.95281369762359    5.43970511252507
H        13.62668391539519    8.83052059970020    4.85284033863010
H        11.87467622982888    9.04714370608777    4.75683987241393
H        12.58196486292673    8.05396159060174    6.03913499016004
C        14.90880386206124    8.31658712167982   10.62991003209531
H        13.88804715558376    7.92796935114923   10.75019605100813
C        15.87364243307633    7.13037864064719   10.49838507382148
H        15.72935692682067    6.61448091664824    9.55136704371971
H        15.72538792751640    6.42352090857732   11.31416260171117
H        16.90581047220660    7.47094662795852   10.53521332857745
C        15.26359677809089    9.11254303987391   11.88835382697317
H        16.24764041819145    9.56675053037062   11.79565318542024
H        15.26873429108521    8.45527739900838   12.75607110438193
H        14.53607490694699    9.89824377658493   12.06260144455332
C         8.49611450828660    7.95115030305272   10.07619324757552
H         7.40238339440600    7.95564557899401    9.92856842815020
C         8.60923744812896    9.57080443593384    8.35171009677696
H         7.51717488830085    9.57757466233076    8.52088555874882
C         9.12633374856578   11.00389321091339    8.48225827582236
H         8.87931110327659   11.40831884322641    9.46159732194584
H         8.68863041622020   11.64121370499639    7.71685463514378
H        10.20967549906915   11.01396568994671    8.37743839361651
C         8.85892311125310    9.02560665561147    6.93951520627616
H         9.92564089838462    8.99090190755957    6.73275522084210
H         8.37846064772818    9.66065910565298    6.19850768708397
H         8.45637532823378    8.01833389594839    6.85011508300588
C         8.14491562460001    6.39249077490947   11.80838272660698
H         7.26432946764650    7.00369490695760   12.07207652008771
C         7.61724784318068    5.14450040192181   11.08251100769143
H         7.15565303435074    5.42375723250221   10.13712609235605
H         6.87090833451744    4.64527592528426   11.69693433490230
H         8.42022200238798    4.43896303416148   10.87914002516265
C         8.85473949877895    5.99661658072911   13.10228720870282
H         9.67636768809271    5.31736659786773   12.89055916364588
H         8.15772773914240    5.50498392685445   13.77811325285854
H         9.26199919385195    6.87800904091248   13.59240640625248

