122
CSD_code = QEJFES | q = 0 | S = 0 | Stoichiometry = C48H68N5Y | MND = 5
Y         4.26424821873449    3.45989447039497    2.44691767366428
N         2.76457606851272    4.67854924126338    3.79462836704509
N         4.15438289319180    2.25145014381636    4.52418365868233
N         4.03439501281444    0.78573898706612    2.04672474832038
N         3.00551177489821    3.71191962294848    0.65097042291336
H         2.11876772408826    4.09087605659398    0.98844087192559
N         6.37981500977864    3.94776395861892    2.59994135865443
C         2.51499721476293    6.23864922658511    5.69173528186534
H         1.53821492528277    6.48179239493638    5.28027955364644
H         3.18130196018302    7.08272905058015    5.50961231130361
H         2.42901353811800    6.11030942066103    6.76814625788641
C         3.09485461026837    5.00032327518725    5.03788734987037
C         3.94922553682657    4.24124461358435    5.83665031710810
H         4.20635143252905    4.68185308464177    6.78951969794289
C         4.32885353875488    2.90243840694308    5.65806882798626
C         4.86450201549502    2.22192764481420    6.90202255183469
H         4.15293663470390    1.48326540991927    7.27022481876190
H         5.03315669844376    2.95136814395350    7.68845407824627
H         5.80956242278227    1.71915761086239    6.69752970016469
C         4.22232191781691    0.80082447821598    4.55588322142961
H         3.22274930741220    0.41367024734746    4.80688948562788
H         4.91336595199632    0.42069755744206    5.31820081327794
C         4.68549135513318    0.20452326824942    3.22447232899875
H         5.76136771110849    0.37764879403964    3.12526100691150
H         4.52046147099740   -0.88719007139744    3.25692294025695
C         2.62046956804490    0.40181609631660    2.00896724054789
H         2.16956075099549    0.78021403371297    1.09144702599255
H         2.09298849966193    0.82754566186816    2.86080093828011
H         2.50757040349159   -0.69238611823766    2.02870573797086
C         4.69201373887505    0.24012208290250    0.85832390961235
H         4.64463806682098   -0.85902546142236    0.84953774321002
H         5.73751163462706    0.54723711007281    0.84274701608562
H         4.19981640530553    0.61870024317424   -0.03653141370628
C         1.53511810538895    5.18065859297438    3.29433501695067
C         1.46054830178341    6.33298241062450    2.49875638656444
C         0.21571844189638    6.77379119879162    2.07055917817734
H         0.14428860968059    7.66814480125621    1.47021652805948
C        -0.93916150473078    6.10016647254535    2.41648658527938
H        -1.90076971638200    6.46985596134291    2.09158308365138
C        -0.85984728615619    4.95252854794382    3.18322977432364
H        -1.76702443228070    4.43114903147352    3.44860412643737
C         0.36305509142968    4.47325065911386    3.62594132783198
C         0.43277863845961    3.22771683389023    4.48496054599027
H         1.47604809340212    2.88866703922781    4.50390239205223
C        -0.42514665815876    2.08680105145030    3.93391862260339
H        -0.23969503305789    1.17772344162472    4.50412078352860
H        -0.19055638725963    1.89374071959710    2.89081954695599
H        -1.48518206670684    2.31524782150804    4.01290017170769
C         0.00619030319400    3.54879731490140    5.92033845131612
H        -1.00796543008591    3.94347432751195    5.93597538807142
H         0.67011204920807    4.28487234279706    6.36411820796033
H         0.03550279760889    2.64847159002864    6.53125536041843
C         2.70192016357933    7.10897684882783    2.11944786161156
H         3.57790763198034    6.59324171883020    2.54028663938141
C         2.85959538977004    7.16511630321450    0.59738455008278
H         1.99885718857099    7.64491616230360    0.13681158007840
H         2.95697296679386    6.16003909201787    0.19014336049403
H         3.74727529359766    7.73623830630813    0.33531681854759
C         2.66169321878266    8.52911624334774    2.69156018070493
H         1.86672253933705    9.10895753134068    2.22829518561762
H         3.60754216435185    9.03213048976449    2.50130214290395
H         2.48683384316630    8.51315424498653    3.76451956375333
C         2.72673403320112    2.92015011056129   -0.43500655318022
C         3.76356111765518    2.52529459045640   -1.32595733122790
C         3.48295389809446    1.70228852297737   -2.40144311332226
H         4.27687696110103    1.41384792894812   -3.07292488595765
C         2.19987520423540    1.25138509946261   -2.65273335954206
H         1.99937614904497    0.60458331967716   -3.49388335760836
C         1.17139529371546    1.67830299872659   -1.83460988999938
H         0.16504050550082    1.36436379511494   -2.06498292439958
C         1.40140418471490    2.49470106820069   -0.74120018653299
C         0.21946694136879    2.99476055018238    0.06794095773605
H         0.53497676058692    3.17190489297859    1.10454692479737
C        -0.95089371689153    2.01131884294099    0.13262784337570
H        -1.46782230483653    1.94658649886374   -0.82133301908034
H        -1.67083930053006    2.35311145613824    0.87427985875956
H        -0.61046460231247    1.01553875812561    0.41182880731405
C        -0.25907887519662    4.32539997396118   -0.52340592515564
H         0.54367752278773    5.05913259579684   -0.51918065639027
H        -1.09206710350901    4.72271302416245    0.05277863976575
H        -0.58070641769949    4.17765483439760   -1.55254226814769
C         5.14746770415905    3.11888583786058   -1.17756847492712
H         5.34594997803372    3.28435685389937   -0.10504330630846
C         5.15300398389589    4.47449839057301   -1.89261959819420
H         4.89808088462580    4.33644567336093   -2.94222622936565
H         6.13676861814486    4.93171063030222   -1.82919549738765
H         4.41886450072121    5.13935057467651   -1.44631008595354
C         6.28031133763614    2.25711358849766   -1.73757691959468
H         6.19726682890271    1.22277077920354   -1.41325745868422
H         7.23408981732856    2.65124009153671   -1.39404574907153
H         6.28368920603352    2.27823837654388   -2.82511551849070
C         7.02606676094713    4.26921732915278    3.87885238463953
H         7.99290876574964    3.75022422854518    3.97004875788866
H         6.38533200904774    3.95881638920672    4.71090983888000
C         7.27384230879336    5.75600780050913    3.96081385343297
C         6.23936910619019    6.61526539226592    4.31324418615406
H         5.28674949230069    6.19273503943304    4.60011876105313
C         6.42523273063983    7.98572937092288    4.30230168000211
H         5.61553215817815    8.64491129771651    4.58311135750225
C         7.65003817567988    8.51652944039135    3.92985591665139
H         7.79662566731597    9.58690860144297    3.91743438358377
C         8.68573071878041    7.66877848507422    3.57518397924077
H         9.64207478989994    8.07823154831922    3.28338549258388
C         8.49944833775219    6.29716703276852    3.59167649551125
H         9.30989346278725    5.64071456268661    3.30798770272602
C         7.32929446652503    4.06671043696532    1.55631170998124
C         7.34340274015350    5.18978637423454    0.70888109132832
C         8.33478024166121    5.31706068036268   -0.25178980456332
H         8.34549283749716    6.19495484389378   -0.88380496265355
C         9.31678480484934    4.35486168929312   -0.40185904747006
H        10.08943611262607    4.47339522504656   -1.14722489966770
C         9.28898032595081    3.23234238302745    0.40350950003346
H        10.03660922200313    2.46017076787877    0.28040096594297
C         8.31181592697755    3.07627317641036    1.37510988121740
C         8.30674491210326    1.82361231497020    2.20576511510502
H         8.45467267463909    0.94989157386870    1.57072966914782
H         7.35765554489650    1.73444220599721    2.73342935560271
H         9.11229023871502    1.83792531432153    2.94147122864098
C         6.29861770762673    6.25883004466567    0.83486224891652
H         6.19310471761800    6.79691339649403   -0.10479326929072
H         6.57590864184258    6.97520159708132    1.60748179457667
H         5.33667896013965    5.81246601371760    1.10799870667505

