83
CSD_code = QEJHAQ | q = 0 | S = 0 | Stoichiometry = C36H40Cl2CrN2O2 | MND = 6
C         8.15368491850855    3.45827768075735    3.49255831773232
C         6.87718103655315    3.58901822384087    4.17697397122027
C         6.29067003617333    3.07554694065428    5.30733209306100
H         6.80943160003083    2.38292638372116    5.95382829938332
C         4.97569968140272    3.47393186812254    5.62138286303046
H         4.52320157102212    3.06551680100076    6.51404972497742
C         4.25526847781497    4.35043457955302    4.84895827817526
H         3.25003144768588    4.62790415589503    5.13168261928933
C         4.82554500088131    4.89553636700737    3.67329416678157
C         6.12273550367322    4.48966919597533    3.37779994402641
C         4.23426073836701    5.80333351850816    2.76169875973631
H         3.22810195385618    6.15562093658062    2.93766273961519
C         4.93607830021291    6.23186784190492    1.66279076246126
H         4.46897496100381    6.92583159652441    0.97817271530345
C         6.24908049997067    5.80645496751947    1.37690931914776
H         6.75167845844637    6.17717641326831    0.49536870879170
C         6.85258823218951    4.92458596262789    2.23894217595539
C         8.13398910458419    4.24493752457253    2.33367250531350
C         9.45598531595932    2.14381511113218    4.94716697872722
C         9.69314730343498    2.92441736647235    6.09184948609194
C         9.94723665783654    2.28671843216979    7.29725157287660
H        10.14396079351237    2.88429540336986    8.17563665790951
C         9.94793996465400    0.90652703024491    7.38934444767931
H        10.15156201256035    0.42589162645283    8.33483727295806
C         9.66328176748684    0.14781347052555    6.27004829652531
H         9.62796905001102   -0.93007935310683    6.34417928122444
C         9.40436278919273    0.74771411127857    5.04491999810837
C         9.05664353795373   -0.09407948668706    3.85878111358888
H         8.71320795082889   -1.07691670251049    4.17438216296381
H         9.92756105383547   -0.22424562393955    3.21641611435151
H         8.27946409332875    0.37957196983369    3.26115648091598
C         9.67059237720591    4.42050119336964    6.02184683774583
H        10.03123818041214    4.84827889982738    6.95411855920200
H         8.65608368666594    4.77919084796978    5.84712681262850
H        10.29630426737426    4.77757437934531    5.20527116795702
C         9.33440249968109    5.02380753329535    0.45722593444631
C         9.84149021574191    6.32686952073812    0.56702589449745
C        10.05473170289912    7.06352630370820   -0.58988121245463
H        10.46871905085452    8.05867241687426   -0.51108141653090
C         9.73174639400074    6.54734287523399   -1.83172201743589
H         9.91515486265953    7.12634478017941   -2.72513332003709
C         9.12649900127073    5.30715379449832   -1.91956117273347
H         8.81356034713232    4.92768360651212   -2.88200119560472
C         8.89958233050381    4.53956035130933   -0.78496253627633
C        10.07833375350597    6.93967264200118    1.91252331057851
H        10.50371960702351    7.93517404223182    1.81021030582528
H        10.74520920692061    6.33115079038459    2.52160960634121
H         9.13258068010490    7.01908104848206    2.45029530067522
C         8.13859704228362    3.25364513348484   -0.88092063248489
H         7.20544676833820    3.33644598871742   -0.32235669452765
H         8.69637561149633    2.42192769742682   -0.45383363443933
H         7.90298487703235    3.02453705772613   -1.91768284899456
C        12.93217687932252    4.61387923212669    0.40161456670150
H        12.38498797705023    5.42687583515484    0.88184755935948
H        13.87841277366767    4.46362362038400    0.93668143946898
C        13.16220289724835    4.86629165672260   -1.08626497706568
H        14.10838777580640    5.36848761879101   -1.27264195204095
H        12.34985180691473    5.46989955881909   -1.49262988444266
C        13.10382313357496    3.45320292270896   -1.65728597504080
H        12.85292165020830    3.42630773005650   -2.71446066617616
H        14.05189520745099    2.93673672984997   -1.50045267464893
C        12.00985635907777    2.83925290562398   -0.79336150472440
H        11.01983511633310    3.10565464361279   -1.18183876544610
H        12.07615210421875    1.75358319113669   -0.70118847220546
C        12.76522834337763    1.60712804439012    4.45847713224436
H        12.04915133705786    1.98522818962545    5.18640564470488
H        13.59777730775109    2.31897494152468    4.36425373832140
C        13.27997450572895    0.19991276533242    4.76943418017242
H        12.50597038032417   -0.36763222375329    5.28428474037851
H        14.16909284850323    0.22556277549072    5.39458357441047
C        13.55026760331150   -0.38509929096679    3.37256545498094
H        14.61329896324269   -0.52807547352099    3.18824402200064
H        13.04902110020321   -1.34263392531568    3.24472842324665
C        12.96661113353520    0.67206513444622    2.41809364995535
H        13.76484734701781    1.29675064543158    1.99196009129227
H        12.36949579022578    0.24735961616907    1.60992005221326
Cl       11.86049942855498    4.42990509485305    3.34701357261173
Cl       10.03005121809772    1.29402212764223    1.09664229307805
Cr       10.58028490163976    3.00942037832929    2.30160121524227
N         9.28739211060819    2.78551481541311    3.70813330271716
N         9.25147581841376    4.21352407577609    1.60498955828248
O        12.17462515113234    3.40345174575222    0.50808230813456
O        12.10805475433757    1.47476970178872    3.21020347597040

