51
CSD_code = QEJHOD | q = 0 | S = 0 | Stoichiometry = C17H29CrNO2Si | MND = 9
Cr        2.44559418387276    3.92232052889757    2.12406093415862
Si       -2.26278148500089    2.70931064404851    2.40957556890168
O         2.68775251814565    2.10745629940241    4.26564263653404
O         2.87324565392769    5.94866183732297    4.25773281040715
N         2.54012567707939    2.86382008416892    3.36873046279923
C         2.71153133924247    5.20820262388502    3.39117148487947
C         0.58274373930089    4.94407183859746    2.74764386170339
H         0.28962159570450    4.91318920395393    3.79292991175291
H         0.48756994281793    5.93050695697988    2.30235301804384
C         0.30456639394581    3.81709864108210    1.95619378795322
H        -0.00301812841639    4.00982954174146    0.93327341298453
C        -0.34962966496537    2.60496083159947    2.54309881874131
H        -0.05599491030509    2.49755751019773    3.58747890749979
H        -0.00778727283030    1.71034036491233    2.02127478688034
C        -2.88407198848595    4.26966199674037    3.31275848043379
H        -2.43266370337197    5.16896866646702    2.90535866924884
H        -2.64312443275703    4.23372671753846    4.37066819056485
H        -3.96132798625192    4.37372658550730    3.22641032248828
C        -2.74996676466254    2.80708109356170    0.56239744752182
H        -2.45082633379918    3.75235686469414    0.11925700315200
H        -3.82473445184720    2.71947048251062    0.43678084129414
H        -2.28987861771358    2.01040975964783   -0.01501847927418
C        -3.02726950183774    1.14525099952398    3.18714546101194
H        -2.71458065299555    0.24561043402244    2.66667157890965
H        -4.11140551339189    1.18206629798601    3.15430765316271
H        -2.73448906948169    1.03942263088436    4.22672015440611
C         2.44900952229716    3.17589925998916   -0.02567882473266
C         3.60135049619762    2.70970640144768    0.64134843977200
C         4.36793659107096    3.84371969826036    1.04758495125945
C         3.71070222971564    5.01005123291659    0.55241059819537
C         2.52145599591484    4.60635146943832   -0.07748201082149
C         1.49260003179604    2.30764478814063   -0.78772830571787
H         1.94483624258664    1.99621751491798   -1.73237239006817
H         0.56578717577241    2.82812862772885   -1.01933902937262
H         1.24289477825191    1.40931461550577   -0.22503182518142
C         4.03646065525238    1.28169555747351    0.77422969872030
H         4.74995265148558    1.03199844447780   -0.01427171390933
H         3.18970655484949    0.60423570403132    0.69247643475388
H         4.51920873592173    1.10859595756304    1.73449288708103
C         5.75826726857464    3.79828695193839    1.60595712680907
H         5.88280544008690    2.94151202998777    2.26515749573612
H         5.97879520830272    4.69980291455968    2.17370388412828
H         6.48965538236675    3.71684115680732    0.79850499788613
C         4.26280912534279    6.40171211335320    0.59996154053453
H         4.98242394252314    6.54679417286501   -0.20870342287530
H         4.77468702322836    6.58935295435427    1.54189905662690
H         3.47468216151798    7.14287723854267    0.48542352715672
C         1.62348451940817    5.51040215391533   -0.87115612943220
H         1.39658397911322    6.42747229993515   -0.32652042494733
H         0.68306570305115    5.02444684648917   -1.12383557997871
H         2.11203801944907    5.79266045948489   -1.80664870777938

