44
CSD_code = QEJHIX | q = 0 | S = 0 | Stoichiometry = C16H25CrNO | MND = 10
Cr        1.73933300468040    2.61023223907506    0.50860048479558
O        -0.98857627045654    1.98919726830278    0.78131518617493
N         0.17161526335270    2.22068327588491    0.70086941989011
C         2.57674308507884    0.52285876404892    0.39500410671829
H         2.11040074306174   -0.32808278005591   -0.08171639443485
H         3.56769139221547    0.74172685785493    0.02447449103670
C         2.21263295193174    0.82994985753452    1.69575780818729
C         2.83430659723621    2.00097770959097    2.28966063589245
C         2.00942097235217    3.01374124457210    2.74374784942715
H         2.46562205239185    3.90027666676981    3.16413475171633
H         1.01050128976140    2.82277021014739    3.10612121936089
C         1.16090706442438    0.03547406985050    2.42229054799857
H         0.70497708318720    0.60992627060691    3.22563796279910
H         1.62870053233240   -0.84870585726568    2.86151687472595
H         0.37937028154790   -0.29684837765073    1.74124154460168
C         4.33246113631525    2.11954969891251    2.36872866261536
H         4.83594929303693    1.57466258615247    1.57289421238720
H         4.65825443010868    1.68140622349687    3.31627180707342
H         4.65677980609067    3.15723084817899    2.35878120676194
C         1.28582622349627    3.89158428922070   -1.21653836377012
C         1.81250312590355    4.72397355248197   -0.19025010675129
C         3.20650361786952    4.43089211043566   -0.06179316693161
C         3.51549527385664    3.37282031995913   -0.92141961883291
C         2.31944109924800    3.00067100385784   -1.61772851541463
C        -0.05275242227035    4.05404758123284   -1.87198889229014
H        -0.00006938189053    4.82803940333161   -2.64084621486415
H        -0.80884961078100    4.34393881248531   -1.14554958024292
H        -0.37279506018176    3.12619556716976   -2.34004998393529
C         1.12882856542334    5.91884486016486    0.40064949582186
H         1.53333769875146    6.15352277857665    1.38272676748859
H         0.06161884871296    5.73673178560621    0.50512062498368
H         1.26462913614851    6.79348891069939   -0.23991916038003
C         4.16501428267009    5.27172739944642    0.72235423878738
H         4.25206198850825    6.25405716858198    0.25314729620636
H         5.15822336080526    4.82873701149983    0.75061924587352
H         3.82011989940798    5.43033596884092    1.74407843848686
C         4.88915259946478    2.86549133785652   -1.24372131602804
H         4.86340473128226    1.83823623533390   -1.60390748348320
H         5.55159718888140    2.91122543136855   -0.38037630497121
H         5.33216071875432    3.47675114308375   -2.03405933189618
C         2.25307622777512    2.06254488128443   -2.78313950481964
H         2.49932979752372    2.58789176568245   -3.70872492708276
H         1.25316538681006    1.64636403592081   -2.88392103099655
H         2.95318599518557    1.23765986986840   -2.66849498268647

