97
CSD_code = QEJJEV | q = 0 | S = 0 | Stoichiometry = C26H56B10RuSi4 | MND = 8
Ru        1.89869420403248    3.39274082943086    2.58664260897452
Si        5.56068350102612    2.26135545664368    5.11886434162116
Si        2.77506719183378    3.32169806010646    6.63048171730253
Si        3.00590114301037    7.49828367993636    3.92080059702290
Si       -0.17524002524740    7.21993004307658    2.99469530466782
C         2.84876911964871    2.84034887383202   -0.38210891635027
C         3.21656628183696    3.73873657950769    0.96862545397371
C         1.63096043611516    1.89211974406409   -0.29000446187750
C         0.54607115047030    2.23443994725348   -1.32857762101947
H        -0.34661236830147    1.63979563448923   -1.13384287511789
H         0.89661569192634    1.99860365452001   -2.33031924288800
H         0.27335411338770    3.28542300583198   -1.30902476808002
C         2.00747346697971    0.42057522842859   -0.54604879624160
H         1.14944990247100   -0.21624365471313   -0.32961143943195
H         2.84242493794269    0.09489908628560    0.06713144771830
H         2.28058811240090    0.27588739819072   -1.58833324906929
C         1.03168590174176    2.00581110430107    1.10180324322165
C         1.38594963026753    1.23550963595954    2.24178455143496
H         2.01941177161363    0.35929930266404    2.25387847984368
C         0.55765872877225    1.63930910144217    3.32128797164235
H         0.50498795153610    1.15859948275095    4.28924615812620
C        -0.27842939007154    2.67818950536557    2.86798692187460
H        -1.10994831252850    3.10659674832877    3.41430877393626
C         0.01290066041685    2.90908137850867    1.49093211887638
H        -0.59860341178426    3.50276877727865    0.82705471910896
C         3.17719990936724    3.23986676395159    3.94223844271111
C         3.78125239387274    2.95441599951786    5.04114195058690
C         5.96208701733078    1.14292912582021    3.63038439016787
H         6.11237908760708    1.72310612531853    2.72747727161988
H         5.15860873317912    0.43839629325951    3.44037759509366
H         6.86485346726222    0.56637785031309    3.81056534757928
C         6.79585365082468    3.71170855962156    5.21556827787733
H         6.75731741283917    4.31713661542498    4.31661621677889
H         7.81218463840021    3.34555841788588    5.32401718659371
H         6.58776625173963    4.36188517666840    6.05897305201700
C         5.75148958268290    1.16992285953357    6.67894826641184
H         5.09065738566923    0.30969111796456    6.64856388514485
H         5.54528928372398    1.71322695473004    7.59422137169441
H         6.76792154862444    0.79425202051467    6.74696726232828
C         2.23651165874833    1.66123731136828    7.41561249086978
H         1.48228488394297    1.82237765255932    8.18032395572172
H         3.06873869248423    1.14681495188032    7.88250435878549
H         1.81339189150492    0.99111243959852    6.67379803684605
C         1.21668904417797    4.32868606250580    6.20300083430934
H         0.49466567250371    4.33830234243547    7.01430636428586
H         0.73295095088278    3.91072626319262    5.32272496412857
H         1.46796946263579    5.35508550816074    5.95879045011283
C         3.83005603013778    4.32200883629257    7.86757570733279
H         3.32402457322874    4.38638879353160    8.82541846725017
H         4.00225958963538    5.33563147055637    7.52082213042696
H         4.79743619455561    3.86413392920962    8.03878713023201
C         1.75725437826280    5.22414339306729    2.94086050491130
C         1.55578606782376    6.45982459046044    3.22229772009503
C         2.42140537153370    8.33285104461935    5.54318649686442
H         3.22208099787808    8.93033608511309    5.96762059960914
H         2.12847869250705    7.60338722976646    6.29172246143375
H         1.57602402282882    8.99237021742662    5.37909030730536
C         3.51814353573002    8.85848718000903    2.68122336623630
H         4.47416398423464    9.28587535287719    2.96774695144034
H         2.79874573872748    9.66866146787432    2.64267645966682
H         3.62720461095915    8.46120168637695    1.67780148261478
C         4.47679001288561    6.35693865607464    4.29648549875636
H         5.41844115479148    6.89646481388280    4.29127658936686
H         4.52971984855063    5.57204280260756    3.54934534316285
H         4.37122550052206    5.87237772840568    5.26054004777974
C        -1.13332667155482    6.36232052733726    1.58615769886508
H        -1.97104384441034    6.96559300324431    1.24826993089913
H        -1.52933150706875    5.40549179130621    1.90890556800560
H        -0.48622423898839    6.18899474474424    0.73225852397200
C        -1.13758880245346    7.00480238535686    4.63404555536505
H        -2.15510549104124    7.37420054197000    4.54551670720934
H        -0.66188637074769    7.54436065258446    5.44635025014477
H        -1.18783173831915    5.96011704793693    4.92443209228288
C        -0.06105894342645    9.07208637794506    2.55822358202710
H        -1.05339336340302    9.48474918240391    2.40480625255024
H         0.50472060498038    9.23112231216024    1.64679286196184
H         0.41041756742349    9.64506259589244    3.34829574630235
B         4.23979729706255    2.43985459150721    0.51742703121543
H         4.20981143401224    1.47071774607989    1.18290825010499
B         4.28419081242613    2.41551291392290   -1.24617364762643
H         4.31372482553258    1.38358733164207   -1.80886378368318
B         3.24633741300882    3.70956713795436   -1.81819764708644
H         2.57533113148171    3.55476377465773   -2.77143297582429
B         2.57538412848527    4.52903474231537   -0.40427713455916
H         1.46990796441456    4.92960252112302   -0.33370731000517
B         4.92417753882146    3.95633350640249    1.06294548218338
H         5.39021971979077    4.00790053308130    2.14330777352682
B         5.62947070435530    3.12295649060787   -0.33375724143629
H         6.68313461559660    2.59877331834048   -0.28332308457057
B         5.00776428006018    3.93385785699326   -1.79813116996165
H         5.62419358135911    3.97957236600472   -2.80060111913623
B         3.92771511856746    5.25616950298745   -1.28502026630036
H         3.77815389742815    6.24397349670746   -1.90830781857227
B         3.89935373835789    5.24975769187534    0.48457966423662
H         3.67768558878663    6.17488933937993    1.17145929706875
B         5.41456792070932    4.89350580685645   -0.36232051132928
H         6.32674777445542    5.63666787473746   -0.32562083327224

