61
CSD_code = QEJJAR | q = 0 | S = 0 | Stoichiometry = C19H37CuO2Si2 | MND = 4
Cu       -0.75141188306719   12.82239412721932    6.38751576753192
Si        1.77440596679612   10.97088794859261    7.71924421824957
O        -0.44085263532320   11.78985978602175    4.81308205637320
C         0.46016457036362   12.30068251869500    7.84531302132927
Si       -1.18860811868522   14.44647406340746    9.33403618971369
O        -2.20593334912839   13.93091372163815    5.83871764198773
C        -0.29834524055983   13.19337771740047    8.26124837823454
C         0.89278486472847    9.31982244495090    7.36117073011079
H         0.27988126800378    9.41884261611687    6.47052404111320
H         0.24056788904886    9.03046866112915    8.18011971991979
H         1.59683617396265    8.50928803873097    7.19526237902204
C         2.68280323049462   10.92580466064551    9.39663992891271
H         3.43621154069508   10.14424980122444    9.41490098981362
H         1.99154012500513   10.73787940421530   10.21208442980848
H         3.17988876612183   11.86910743724602    9.59968757852526
C         2.94990217070605   11.43128196766930    6.29324296681290
H         2.37523865098516   11.58450258585173    5.38500709636839
H         3.68180927928313   10.65219584607409    6.09969487582711
H         3.49051656972784   12.34994053865545    6.50171709245381
C        -3.00425759578623   13.89147232984255    9.49821852164682
H        -3.45062863470950   13.79940337568432    8.51308282917344
H        -3.59674723401649   14.60151064168454   10.06842404788450
H        -3.08363780000906   12.92537141756037    9.98814904798246
C        -1.08012196323641   16.14600123081678    8.48104685760448
H        -1.45588578456798   16.06716689635948    7.46541568913494
H        -0.05536310378422   16.50179923114472    8.42719853469077
H        -1.66602801473462   16.90039469454325    8.99864189657525
C        -0.30326051445141   14.44756361080715   11.02428223868370
H         0.74035526467359   14.72715128947979   10.92133055169793
H        -0.33473083436412   13.46508281157212   11.48431146828228
H        -0.76710582961628   15.14891821319820   11.71094695693095
C        -2.08151892146240   10.15058770232901    2.31913826030960
H        -1.86317190390859    9.50096135255582    1.47359493718960
H        -2.98014799866763   10.71801733825387    2.09204986631941
H        -2.27961396308503    9.52946411829199    3.19021411137237
C        -0.61862666238513   11.95889990661276    1.36243860559443
H        -0.33736491429367   11.33687022386948    0.51477223269102
H         0.19542481380760   12.65047150125377    1.56848882768901
H        -1.49584418367996   12.53679378942318    1.08505153059789
C         0.35151746490087   10.22291675836053    2.86345494065050
H         0.56251300522587    9.58030762247031    2.01153708528207
H         0.19756747828921    9.60298090078869    3.74259773135859
H         1.21444455218859   10.85816075071661    3.04618890046240
C        -0.88842579798354   11.07558161481325    2.58548726922492
C        -1.19188313027863   11.95408735407271    3.81093346623658
C        -2.26972523228137   12.83946440106492    3.72213048590185
H        -2.82707903512933   12.83997339613130    2.79933361064358
C        -2.70815086931248   13.74121384078182    4.69383736927237
C        -3.89779448093110   14.61714938741362    4.33236495995697
H        -3.50012815336804   15.56034974363199    3.94584488920224
H        -4.48077507005475   14.14892435227327    3.53826945635751
C        -4.79143963324734   14.90704072528334    5.54278745168641
H        -4.15393930147800   15.29084014728570    6.34535641061592
C        -5.45862374478669   13.62102438870917    6.02425017717638
H        -4.70737407628732   12.87657382962433    6.27825126922373
H        -6.10107441409772   13.21057180385194    5.24694181369907
H        -6.06622156207869   13.81264714493929    6.90614244321464
C        -5.84079930692986   15.95806628866179    5.19336013847442
H        -5.36930216616846   16.88806155631645    4.88312680463592
H        -6.47236276267651   16.16524154825901    6.05433691516496
H        -6.47476782433618   15.60684688371679    4.38116029736374

