91
CSD_code = QEJKOG | q = 0 | S = 0 | Stoichiometry = C39H29F18IrN2O2 | MND = 6
Ir        4.37188645495489    1.92022525773997    6.81031081487043
F         5.32544479042503    7.18019034596374    2.44169619998937
F         6.63752753286773    5.60578277659221    1.79291325033770
F         4.60584166124949    5.66811810768030    1.08921901811449
F         1.72687338091554   -1.20272241557528    1.28478025597700
F         0.84698893250355    0.73045523847105    0.96285579029339
F        -0.19049305522368   -0.74262092014296    2.13829013340882
F         1.03057289723549   -1.68813110208274    6.59833375542874
F         1.86983250728985   -0.13136043397592    7.79888159131568
F         3.14375213286785   -1.63025979769745    6.93139068272466
F         6.29560912229481   -3.12960600950829   11.10841565619508
F         7.41960019664091   -1.38863377975067   11.68000026143705
F         5.45945224949327   -1.71838987836121   12.50227512062461
F         1.75123387419279    4.27997360790782   12.68389659026045
F         0.66682691271526    2.42698282747080   12.65079487488921
F        -0.17071383156643    4.17992318947999   11.72642374391618
F         0.52828521890739    4.96897602077752    7.19282165991339
F         1.54635242882065    3.56135018455530    5.94734922320720
F         2.60826483059593    5.24051499425618    6.76898362000413
O         5.96987850731204    1.28260742070036    5.52887801867103
O         5.90663870892483    2.80576053484441    8.01821170076146
N         4.37438915609937    3.40833222751495    5.49547662735507
N         4.66741333045542    0.45473669654229    8.11704258297828
C         5.07475293172696    4.52587258544210    5.66328446383144
H         5.38691731797636    4.75448322374582    6.67210892057004
C         5.40028754109672    5.36894940912249    4.61935103471551
H         5.97166058454615    6.26657439168411    4.78962576337911
C         4.96789087205427    5.02173137768987    3.34318178470881
C         4.21727706754440    3.87342305132159    3.16300619727619
H         3.87984798434955    3.59976881804182    2.17711175524783
C         3.92442577751592    3.07540938482853    4.26768384388050
C         3.13940674456085    1.84680349616833    4.23224430381103
C         2.47911275696402    1.42363443771751    3.08478980181120
H         2.54751151609967    1.97849750479018    2.16257964521743
C         1.70670253667525    0.27658864778339    3.12507977341154
C         1.58376586473495   -0.43734438378118    4.30646607191444
H         0.96375347463511   -1.32079407725687    4.33653436524684
C         2.25202607484486   -0.00530310371392    5.44626487171885
C         3.06499921472297    1.13428299584636    5.45699891679981
C         5.37018906280694    5.87135761692882    2.16590102084117
C         1.01855812474222   -0.22558234084455    1.88569582721583
C         2.06923957865880   -0.84867423174397    6.68074106975257
C         5.52542433900454   -0.53992675374632    7.91161852014472
H         5.82481183335463   -0.71726832608585    6.88871763760205
C         6.02389201468712   -1.32143313555158    8.93488342612786
H         6.72051845511533   -2.11874910575087    8.73433232828482
C         5.59882101854678   -1.04582868465965   10.23093619990196
C         4.68681388555566   -0.02893675777440   10.45097295536001
H         4.35393561228201    0.18883930809782   11.45218954773010
C         4.22542984597242    0.71356492549604    9.36525745827714
C         3.26142624665370    1.80515139385845    9.44275507912015
C         2.59438772431730    2.12195627477414   10.61940565388081
H         2.78589726987652    1.58523066672486   11.53520576957312
C         1.65305905840655    3.13722815707855   10.62067642459780
C         1.36974042424930    3.82325335816106    9.45168335785772
H         0.62183939790573    4.60184887318624    9.45298459408056
C         2.04558410508672    3.49715413527388    8.28067558356425
C         3.02291504308647    2.49691509357724    8.22662521382322
C         6.17988196590999   -1.82449675872177   11.38232703263837
C         0.96748498780932    3.50335399334392   11.90810310470430
C         1.68029604117304    4.30125263031305    7.06058502803941
C         8.03100121720032    1.15848504094816    4.41461837041617
C         7.19180533105710    1.57983103199858    5.63352969517353
C         7.80279735846140    2.19179477651601    6.73056510066902
H         8.87063255625989    2.27547202006650    6.70615559088251
C         7.15410065053784    2.70481799587683    7.85617130965066
C         7.97031441864136    3.25263572446700    9.03984462326947
C         7.93949843656937   -0.37026429899968    4.31544386083682
H         6.89913815684994   -0.68089388121953    4.24995624989881
H         8.39133261341026   -0.83605393125661    5.18988356924142
H         8.46292534605043   -0.72046681322091    3.42909793843560
C         9.49742243312600    1.57861036696860    4.46836206840863
H        10.02452746763406    1.08775794143358    5.28323652898627
H         9.59570689524321    2.65656625146800    4.57478575536781
H         9.98151689480600    1.28867852057372    3.53791793510473
C         7.37389239025365    1.79114114914395    3.17943200223174
H         6.32254683229304    1.51597649856731    3.12981282946016
H         7.86740466668205    1.44598205150104    2.27437962737522
H         7.45023057946679    2.87703369641516    3.22012214972020
C         7.60947329869536    4.73671918947931    9.18866407641353
H         6.53389213371755    4.85229256440329    9.30196867575902
H         7.93310558958103    5.29655058314106    8.31255256496381
H         8.09796411731796    5.15536018146303   10.06517964599925
C         7.50694105777744    2.48642936193027   10.28746615625671
H         6.42928310778759    2.57721399061308   10.40587707582881
H         7.98990937888151    2.88811150665794   11.17470866605464
H         7.76253208510922    1.43068955982891   10.20483791062692
C         9.48326892802837    3.10901037615998    8.89925241225074
H         9.86286466260657    3.68546910110964    8.05873355050498
H         9.77223447167094    2.06726874794698    8.78018888644425
H         9.95849468905693    3.48658751123421    9.80242965443646

