116
CSD_code = QEJLUO | q = 0 | S = 0 | Stoichiometry = C61H41BF10P2Ru | MND = 8
Ru        5.57476066987657    9.53758811208083    0.65381701130066
P         6.88484917146905    9.56150595204731    2.53655865085045
P         3.46251287796193    9.95367561117528    1.43939128259397
F         7.68486070721134    4.65588389754993    3.06440901261277
F         7.16141761414553    4.04882013937100    5.64520999813707
F         4.57914319762569    3.88801118193328    6.51391616398448
F         2.53247128991264    4.25576073531696    4.74732117194686
F         3.07086753897917    4.78771772636945    2.14698342715201
F         8.41376101670637    4.37370854064376    0.22910073565791
F         9.10135478218610    2.42998175181153   -1.50543389070521
F         7.17883758692871    0.82085988303758   -2.59519072557746
F         4.56056668376661    1.19168851600156   -1.90595335365692
F         3.88341692182027    3.15007636197901   -0.17173666972207
B         5.69716764574340    5.05431085661480    1.00069936339804
C         5.37987427366685    7.56157714517115    1.11084463895578
H         5.11176268024513    7.31586386064603    2.15071176134205
C         5.63811215783359    6.42703129227342    0.37823423229830
C         5.39261100517669    4.75233978951670    2.52584331159917
C         4.09057339112884    4.63557402925336    2.99970495949267
C         3.80080074669119    4.35190931112817    4.32940008725527
C         4.84001970790225    4.15895009241016    5.23099373367206
C         6.15378876887917    4.25323798340161    4.78831729350216
C         6.40742621265886    4.55422462607190    3.45584829196948
C         6.12361483598190    3.83032467362496    0.08202898502898
C         5.17611565112969    2.98511794915025   -0.48490624851135
C         5.50945806128457    1.97484048870514   -1.37958544835639
C         6.84051516569465    1.78316091219803   -1.73171085053162
C         7.81554394033486    2.60345189498073   -1.17644554476929
C         7.44532314355667    3.60499968295292   -0.28693114458923
C         5.93512837883855    6.44256417070428   -1.08243614952717
C         4.90876589846338    6.19135342404938   -1.98871598612882
H         3.90216117117979    6.05013165178347   -1.62045774461028
C         5.17239306726997    6.10775053951917   -3.34431737570405
H         4.36672330135323    5.91877448648689   -4.03953635305566
C         6.46880654563360    6.25353397058914   -3.81045286957389
H         6.67593655975311    6.18336239901760   -4.86829236613000
C         7.49960649755149    6.47578268318208   -2.91274178799986
H         8.51488812163000    6.57221630832474   -3.27044098091777
C         7.23619898933863    6.56515407377789   -1.55718205115273
H         8.04288140895775    6.71924709303832   -0.85593775867744
C         5.88527155453506    9.51812940701129   -1.61610494116785
H         5.65042770973422    8.75815940286527   -2.34451128525670
C         5.05759355796347   10.61578212164310   -1.28331730719210
H         4.09404492685828   10.83275756829187   -1.72820336437308
C         5.81315156701247   11.52283819126193   -0.48738248352251
H         5.50594029228769   12.52783375002003   -0.22966560477824
C         7.08654847819447   10.96095852259340   -0.30190170605204
H         7.93694314802327   11.44761365742999    0.15918620558130
C         7.13230746746254    9.70686531456827   -0.97774236993690
H         8.03062796884279    9.13216222281088   -1.14984382597248
C         6.58346345102493    8.49819120868538    3.99577813301369
C         5.28920148369785    8.50374121796094    4.50404958582936
H         4.53068123707402    9.06738001330081    3.97571137680081
C         4.97446486646928    7.79752401157689    5.64900966143653
H         3.96139117148278    7.80371320675587    6.02408992212242
C         5.96615052840062    7.09345827744896    6.31397207075128
H         5.73298434445568    6.55023337212900    7.21774278849183
C         7.25992100486355    7.08730431822657    5.81777902016222
H         8.03271958500568    6.53812124237725    6.33478909769981
C         7.57129713324819    7.77699901230655    4.65832010440270
H         8.58107372856434    7.75106776892599    4.27446414773175
C         8.56869609359348    9.04999848245084    2.05133778360725
C         8.74829593936179    7.71885669199712    1.67835492565144
H         7.91260320068855    7.03456850345076    1.73820625261585
C         9.98180256316973    7.27685426402115    1.23958249166899
H        10.10941631541655    6.24080838685550    0.96548459861966
C        11.04390277183127    8.16433125153437    1.15352453936470
H        12.00742573648800    7.82268065271951    0.80562382834187
C        10.86863029305433    9.49007624282533    1.51300527558574
H        11.69479603292086   10.18327563449376    1.44511268252169
C         9.63683236901018    9.93569544229776    1.96170587067239
H         9.51080932371064   10.97171210729141    2.24690422428879
C         7.24914475568105   11.13126509250970    3.41472967634685
C         6.85538352839561   12.34313182881565    2.86323246460519
H         6.28952390573743   12.34559444084080    1.94386864718639
C         7.17238159646820   13.53718600289239    3.48647496965701
H         6.86134363768880   14.47255191997377    3.04406708759799
C         7.88416908300261   13.52932137645314    4.67321090007529
H         8.13349825728830   14.45916072791247    5.16269308977796
C         8.27708151418071   12.32330810807160    5.23309295510870
H         8.83288158083707   12.31394224229063    6.15924568144298
C         7.96485410242308   11.12986139778215    4.60990655855554
H         8.27924192454614   10.19420554618450    5.04902371667494
C         2.47985814695076    9.16121948204994    2.77424313929178
C         2.25832977291389    7.79468405142253    2.61343064066057
H         2.72105485803218    7.28326420093417    1.77965929303600
C         1.44267045310517    7.11075319787737    3.49322459756921
H         1.25493578520032    6.05885405641128    3.34942669298092
C         0.84887929833965    7.78008276444932    4.55183725052007
H         0.21722139889073    7.24336790179383    5.24358618560877
C         1.05731375504845    9.13864859716045    4.71005172756092
H         0.58433378323628    9.66878191241662    5.52413013114050
C         1.85890998430000    9.83392946707184    3.81983609839881
H         1.98873091231346   10.89857640348045    3.94633540713741
C         2.15921175961222    9.66660689545060    0.18476470273014
C         2.40545739524728    8.76637397506861   -0.84367988025332
H         3.38380355649706    8.30450244063498   -0.91360080891704
C         1.41268436959069    8.46406955851881   -1.75869578303644
H         1.61136084151405    7.76542828826059   -2.55810870140852
C         0.16615526195707    9.05622755846739   -1.64626884980472
H        -0.60896317137036    8.82683199464638   -2.36232665454998
C        -0.09247901917890    9.93510336894142   -0.60547445908021
H        -1.07001959618442   10.38450186050304   -0.50861524402238
C         0.89383066530587   10.23212240716704    0.31611781422111
H         0.68578076161995   10.90114606083655    1.14032395431422
C         3.30556321811848   11.72897234668313    1.82681065166633
C         3.81390541693646   12.18170896395637    3.04349202949188
H         4.24983113630246   11.47097187666934    3.73478682429013
C         3.78216404864650   13.52698229426877    3.35949902286102
H         4.16677982022406   13.86381731397157    4.31112178603452
C         3.27096089381976   14.43985730741906    2.45089853914831
H         3.24664703694761   15.49159864879646    2.69494676903368
C         2.80367670701814   14.00253212445320    1.22217133710362
H         2.42325399366259   14.71474627486996    0.50413738033336
C         2.82190576040704   12.65516043701371    0.90788950219634
H         2.45931387391983   12.32129202861122   -0.05468734919293

