88
CSD_code = QEJLOI | q = 0 | S = 0 | Stoichiometry = C32H46F3O3PRuSSi | MND = 9
C        11.43962781195044    5.39580321677692    1.39075333252126
C        12.75792363819365    5.12717516118603    0.86406941518907
C        13.64818311661398    6.10875590110533    1.39841716124737
C        12.88566460987886    6.96060598563809    2.26501515148307
C        11.51923929346829    6.54331644031028    2.22808261683965
C        10.16045089699637    4.79809959158995    0.88788141766261
H         9.41634389559519    4.74794304629842    1.68088683259164
H        10.31680877060983    3.79383017585816    0.50098707692797
H         9.76387012739842    5.41875139529732    0.08097631001258
C        13.02927542471243    4.26850258834211   -0.33656452596419
H        12.43032253997568    3.36072281295682   -0.32097409025520
H        14.07753294953734    3.98737560632376   -0.40244156701674
H        12.77074274548225    4.82810874567804   -1.23914533834175
C        15.00806790496322    6.43913303184750    0.85606675075585
H        14.89377089097704    7.10878956047746   -0.00036043405265
H        15.53650814389142    5.55083037769901    0.51536013919311
H        15.62441298669555    6.94342555189607    1.59642173083536
C        13.35386163150604    8.26497260127011    2.83621709151746
H        14.42065881786065    8.25109473852402    3.05008729713803
H        12.81987946011280    8.50254418674889    3.75410273689413
H        13.16244196615688    9.06171186084120    2.11358365417373
C        10.35265466457533    7.34313995321353    2.71687023204421
H        10.06828170326907    8.06638827672272    1.94813642646456
H        10.59294819709091    7.88735580414537    3.62654624560599
H         9.49609761796332    6.70582576778896    2.92194409117722
C        15.37643754608820    2.65897469007864    2.19695212547693
H        15.44069011624110    3.53659900132205    1.54057163686197
C        14.50229935131039    1.61783466375502    1.50342916266460
H        14.81230954681969    1.48590863726485    0.46727229727940
H        13.46038474488164    1.93292907748412    1.52055347952166
H        14.58719316799404    0.65587593949611    2.00159266929787
C        16.79170024139272    2.12063198086773    2.39291176145320
H        16.81494541930072    1.29735441181917    3.09893809868183
H        17.47841625055888    2.89121890757662    2.73158282819329
H        17.15834922894782    1.74963967742087    1.43551061671723
C        15.87222698469705    4.05826467438015    4.71576148874492
H        16.66330458699187    3.30368047873614    4.76521648701377
C        16.42791433185098    5.29831095986195    4.02391031448636
H        15.65737825959608    6.06583689278083    3.98291436737212
H        16.75358827146281    5.07615858507828    3.00971380235705
H        17.27784218756310    5.69372281223608    4.57858245443881
C        15.41607758974929    4.39864468262185    6.13286824648124
H        16.13946278340963    5.06315629060760    6.60312241657694
H        15.32502958098788    3.51187189215247    6.75396705690142
H        14.44874716896494    4.90088268969552    6.11567692724905
C        13.96731202109428    1.91933908541489    4.81153568344754
H        13.67036383777897    2.47208113314115    5.71079004013068
C        12.73058698166048    1.14832621224895    4.35931272637789
H        12.93889435020479    0.50157322754600    3.51172377376832
H        11.93296902903865    1.83858650002086    4.10078014975323
H        12.38016329109170    0.52785884242460    5.18227571881525
C        15.07553343585019    0.93125153756849    5.17358750817812
H        14.73469336670577    0.31404466469570    6.00350073704718
H        15.99093583091759    1.42463384752550    5.48597036266942
H        15.29465319287755    0.26824606955511    4.33978352345219
C         9.37294211032258    4.41860884209052    4.65963803372821
C         8.75851975197691    3.36466331675003    4.00675322285494
H         9.36432316589123    2.61704254440821    3.51373762974805
C         7.37511321087197    3.25990167716421    3.98615052429552
H         6.90147780320467    2.43044357305351    3.48049355994274
C         6.60216639776149    4.21899573210006    4.61727196862375
H         5.52442816349246    4.13762993298277    4.60191309173377
C         7.20123541552387    5.28132013008270    5.27357186626820
H         6.58293497492945    6.01806157517251    5.76443361493892
C         8.58490329964319    5.38947186277794    5.30136968879522
C         9.33766132874957    6.45377607711169    5.96868828636474
C         8.78155296858622    7.48462283431188    6.71404985107428
H         7.71199563506239    7.55250043028042    6.84648967416841
C         9.60252267339603    8.42963970237971    7.30579054949289
H         9.16637786897152    9.22673834659888    7.89130168837623
C        10.97680911948140    8.35757845873967    7.15549037484053
H        11.61105273652008    9.09719149614265    7.62268900169838
C        11.53723382327433    7.32964280574308    6.41266095840746
H        12.61072861353345    7.26622536767945    6.30170816807950
C        10.73126027739825    6.37353289449704    5.82327010704621
C        11.71819906386454    2.35768420859342    8.28962466714394
O        11.70991161165409    3.72034787802779    6.17207912020462
O        11.86297083601414    4.99241353373396    8.24978705194456
O         9.72846669308936    3.96813264413999    7.60807370344604
F        13.04933944580610    2.25695437875754    8.21876694079438
F        11.36928751804914    2.22493960772843    9.56748739926170
F        11.20747938606970    1.32628961034707    7.61536567389376
Si       11.23877148002979    4.79834086302747    4.86963848773566
P        14.46986304014852    3.34635305448759    3.69868991073130
Ru       12.77010178648348    4.85731810892776    3.07607676902631
S        11.14483343699530    3.98888794747604    7.54690601379135
H        13.47259548176166    5.61608566967022    4.19859076721422
H        12.10036837996524    3.51352445108852    2.80631341827058

