126
CSD_code = QEJMEZ | q = 0 | S = 0 | Stoichiometry = C67H40BF15P2Ru | MND = 8
Ru        4.13820368977919   10.66956037252016   12.36058324386664
P         5.62792705643786    9.24484011428968   11.28318782607684
P         2.67090911180069    9.03637626161114   13.14290390382039
F         6.69097341956223   12.36480220290986    4.65036682478547
F         4.99994283804548   14.00963904508462    6.27776508132971
F         3.85451472106780   13.82602035636220    8.70045852110417
F         3.00149053156464    9.25472621051144    7.95662772123802
F         4.19831301732553    9.39192718782849    5.58041004793748
F         3.34218223471376   10.89283608318939    2.48960820899556
F         3.48675942668422    8.66152817055643    1.02820239332646
F         5.66479120182939    7.01270332567655    1.22154379521008
F         7.69338650145197    7.67352760662989    2.93879556245035
F         7.56385389085944    9.89887320827795    4.39165584471142
F         2.59857950074300   13.08311012865026    4.68175815002372
F         1.56428217691682   15.03755717615779    3.19064348200940
F         2.97750593237828   16.09098398585487    1.09729383645450
F         5.46329632187265   15.10296956448258    0.52439730620425
F         6.51181002667969   13.13461441300817    2.02017377131635
B         5.39303061112629   11.91676025833139    4.35720247347579
C         3.23547813569031   10.98364640593990   10.74366226673880
C         2.68950892539522   11.49305068513579    9.67814529120621
C         1.30316071676923   12.02986690993707    9.66364748161946
C         0.45808997690845   11.75016540477846    8.59593325614320
H         0.80613584074358   11.14869462233120    7.76989119660149
C        -0.83206153626214   12.24808418200299    8.59295909790432
H        -1.48203300170108   12.03417597446781    7.75828108993187
C        -1.28576652311126   13.02428805404439    9.64634387608758
H        -2.29231792881441   13.41410423199352    9.63672419831978
C        -0.43997385469355   13.31368940317009   10.70386047920514
H        -0.78325489016804   13.93604364169963   11.51738968142297
C         0.85171650980355   12.82098486234786   10.71327981606653
H         1.53175049765516   13.07452094089746   11.51375682086571
C         3.39390960806759   11.54303976944236    8.36635865028485
C         3.91735844633391   12.74085147577470    7.90113359158962
C         4.52125860090286   12.81727506954531    6.65571640552426
C         4.63350692006918   11.71845180880778    5.80621439705614
C         4.12175376287492   10.52865422046497    6.29894571560927
C         3.51102589039423   10.43569064525068    7.54341924134553
C         5.46105700059696   10.52159841924356    3.48773521010666
C         4.44890279534948   10.13785646895662    2.61577670553273
C         4.49842545995840    8.97823141455571    1.85126241680782
C         5.60021687770340    8.13942135400032    1.94540256747881
C         6.62711844678670    8.48207548484845    2.81201958212726
C         6.54393334824974    9.65281541910442    3.55856120904313
C         4.63525001325316   13.06872944945087    3.45427830380004
C         3.36333159539106   13.57453433512084    3.68625871863728
C         2.79640169935361   14.58076046549980    2.91285270712969
C         3.50792735048198   15.11531267271169    1.84831833839626
C         4.77157529351634   14.61506993536042    1.56573602606497
C         5.30620208825857   13.60724737845171    2.36119473649726
C         4.79359914104351   12.82489580146339   12.58942083532325
H         4.81663842528409   13.60271465279118   11.83760531857862
C         5.86463273777286   11.96455317753793   12.93900967307968
H         6.86605488829219   12.00083386829090   12.52869999679377
C         5.48195421896133   11.21420215714956   14.08846042707302
H         6.14603610669162   10.60599613491100   14.68747020566832
C         4.17686370255397   11.61049845643862   14.43513683554159
H         3.64059770092405   11.34045766137293   15.33618910787130
C         3.73719070061772   12.59116806335281   13.50201121469816
H         2.84116596336220   13.18722026748988   13.60679978853156
C         6.24391283885773    9.85399883748994    9.68760086522329
C         6.35182575466124   11.22660210802091    9.47555135953734
H         5.96188097456750   11.91524758606478   10.21453881004366
C         6.94461479091219   11.70741771400108    8.32282043155438
H         7.04422918676059   12.77087900636189    8.16784480228960
C         7.40805593759549   10.82571067234289    7.35972931620129
H         7.84871299301236   11.20323701920229    6.45210423187525
C         7.27487537561483    9.45996531512194    7.55496019767435
H         7.62139874336568    8.77634760895460    6.79625978112004
C         6.70776029734962    8.96866587665425    8.71691391639989
H         6.61730280780816    7.90287182499323    8.87069303270721
C         7.16621545610279    9.01051115040918   12.23099964980777
C         8.36611476249855    9.60161752813677   11.84926330386252
H         8.41666127983286   10.18939708885320   10.94341227701042
C         9.49887148582970    9.42682674289498   12.62591547994541
H        10.42851412344534    9.88498949809064   12.32351518957136
C         9.44361996713847    8.66803004875618   13.78321788774603
H        10.32989256659744    8.53536649727647   14.38500614788907
C         8.24940987924243    8.07701882085645   14.16696472669345
H         8.20114072389219    7.48071478598643   15.06643501527831
C         7.11501791868106    8.24992970237367   13.39745938210337
H         6.18078287409540    7.79155866936101   13.68841421203166
C         5.10132907557736    7.55308094899171   10.89219143507000
C         5.88318132555961    6.41748219499168   11.07484260214676
H         6.86833990217697    6.49258218692227   11.51223328256198
C         5.39333350526771    5.18415121894354   10.68015310525518
H         5.99978308513077    4.30145735923735   10.81949415487219
C         4.14021584771772    5.07865389490091   10.09748214092473
H         3.77071282339196    4.11243062723744    9.78859408387440
C         3.36660265318343    6.21264797177918    9.90085963943852
H         2.39553426803842    6.14029608008570    9.43569453643353
C         3.84655322299271    7.44545011845806   10.30041240302310
H         3.26999225808573    8.34691390290707   10.14703503404430
C         3.52688070971934    7.72854440210419   14.07780782849037
C         4.13746642208957    8.04814626515555   15.29055874113804
H         4.05539593256288    9.05045574638680   15.68740872258904
C         4.84714454353926    7.09106019258986   15.99263202882238
H         5.30400177736495    7.34681762884539   16.93741268762647
C         4.97729090377161    5.80971431806512   15.48024573807006
H         5.53510633675510    5.06383395125634   16.02576893238974
C         4.39422740563286    5.49164391589735   14.26450265525892
H         4.50075971359638    4.49830236442667   13.85571781433897
C         3.67226184953462    6.44211732807705   13.56425522453052
H         3.21784997818482    6.18608287312069   12.61926067218642
C         1.50871667016901    9.77971676565874   14.34566879048493
C         1.21994207564872    9.26764152266205   15.60403115459707
H         1.73111771972163    8.38975038019625   15.97224440316788
C         0.26772947972791    9.88903182028810   16.39553795563859
H         0.05329724020840    9.49473859602672   17.37780102988063
C        -0.41122787523358   11.00349558584164   15.93360490014936
H        -1.14970215582284   11.48256237355965   16.55827072064450
C        -0.15067337741723   11.49503003462351   14.66341872201887
H        -0.69337104989560   12.35051977512254   14.29017739784984
C         0.80245360011889   10.88403318378017   13.87298109567276
H         1.00675240105660   11.24498922727083   12.87109150882356
C         1.35841112711564    8.15472714513485   12.22798335036344
C         0.71821941837754    7.06680273171246   12.81648316151686
H         1.05141896701634    6.69094118986552   13.77355351785900
C        -0.35019759588727    6.46753582140590   12.17617314287341
H        -0.83607123825538    5.61694549364632   12.63061986493578
C        -0.80400750213902    6.95986984685881   10.96253474114026
H        -1.63761705322349    6.48614220350269   10.46678612366571
C        -0.19640037428783    8.06769588843711   10.39625286371431
H        -0.55568341417703    8.46959148505966    9.46141512228127
C         0.87700093470873    8.66699803609342   11.03014407234849
H         1.34844386266412    9.53634428255352   10.59780240807376

