29
CSD_code = QEJNIE | q = 0 | S = 0 | Stoichiometry = C12H12I2N2Pt | MND = 4
Pt        8.51819433857537    6.23805665229966   10.45684647083837
I         9.71865873799254    6.23047637980393   12.74848273224795
I         6.13485029433293    5.81938550505759   11.36958951544530
N         7.78788560246579    6.42395304971941    8.56200460967906
C         7.16562412743090    7.58485222037731    8.34766391983705
H         6.89221340631589    8.15767355342638    9.22705342005169
C         6.85818695532030    8.04782031766694    7.08495820469798
H         6.35563290121800    8.99331990067908    6.96463760787385
C         7.20522707362720    7.26655891968684    5.99299884263109
H         6.98683080062518    7.58898992786354    4.98693739625186
C         7.83027120790246    6.05409915311214    6.22365275111621
H         8.09781341432018    5.41174710691558    5.39890652653631
C         8.11057419679937    5.64625653096644    7.52387061463009
C         8.71986662328333    4.28649556885112    7.74914983248333
H         9.10160962977697    3.93085445603978    6.79017993274825
H         7.91808397854674    3.60766749532947    8.05796328228701
C         9.84635523214988    4.22038117800156    8.79940696606617
H         9.41264507249734    4.12889918604675    9.80950983676426
H        10.44780310373470    3.33030217813520    8.61247061302754
C        10.70826998077970    5.44803096179063    8.76119652257119
C        11.84521299386084    5.54437473995694    7.97372329852058
H        12.14518938052048    4.70607550234111    7.36455546690626
C        12.58683518120422    6.71504065575276    7.99133425083590
H        13.47670989591704    6.80797331680131    7.38853485653159
C        12.17121371903146    7.75690125355635    8.80677877670415
H        12.72465122289016    8.67984227628518    8.86290696763529
C        11.02928554632325    7.58903448167354    9.56688578771624
H        10.67929527185516    8.36489696995829   10.23644956271575
N        10.31731011070245    6.46774056190467    9.53145143464968

