73
CSD_code = QEJRUS | q = 0 | S = 0 | Stoichiometry = C30H39MoP3 | MND = 9
Mo        7.84031854890267    5.82541000830670    3.51116769888724
P         7.14714380539908    6.84074716482257    5.52328857651405
P         5.82566046389150    6.44988863856859    2.46812103331613
P         8.78299475332083    7.89461880894370    2.89742098752230
C         9.40485606820540    4.41060786934085    4.52999879488369
C         8.12258107490331    3.82278690108049    4.63427284395277
C         7.38913290117835    3.53306890800761    3.48390874874801
C         7.90368111977816    3.88960767138631    2.21657130502640
C         9.15834568167284    4.48634763664111    2.10685786077222
C         9.90608988385242    4.75057867453383    3.27573084208805
C         8.32565829608473    6.54347137839139    6.89219597880382
C         6.93197884748553    8.64607465690061    5.76517495065033
C         5.64427693550996    6.18996644862026    6.33292460764363
C         5.08851361530984    6.73875704366670    7.48434836227245
C         3.97251710560893    6.16213639718453    8.06345986427851
C         3.40112854222110    5.02811916677842    7.50977824372852
C         3.95185175759775    4.47144931156298    6.36818010114623
C         5.06408307523046    5.05388396088726    5.78905587512970
C         4.62099814133007    7.60072170500565    3.22739311611415
C         4.66104000565649    5.07004670157821    2.12743205600431
C         5.90744387878216    7.05286535598446    0.74473555150939
C         5.03418786073986    7.97975762761219    0.18471904742656
C         5.15574814376222    8.33757900531222   -1.14718777279700
C         6.13824513914137    7.76955202434907   -1.94010707451747
C         7.00746645261755    6.84000184942932   -1.39262010471737
C         6.89039080965426    6.49123741445589   -0.06050601991215
C         7.81461326779903    9.31857208198303    2.27639950094308
C         9.95293209462001    7.76718829916874    1.49379533699142
C         9.91908317588198    8.70426365549230    4.07896934482637
C         9.95532647563334   10.06940558204214    4.34515239999330
C        10.86738518513995   10.58384046049421    5.25131881072449
C        11.76185165531851    9.74962824527685    5.89855746319345
C        11.73629996672029    8.38928390507926    5.63907925663300
C        10.81807411350388    7.87750573811777    4.74204480424149
H        10.02115384227227    4.52387032684697    5.41490124118147
H         7.76121882787638    3.49343493484467    5.60384455025936
H         6.46461092153457    2.96939009413658    3.54782468681579
H         7.36958468992784    3.58662476254400    1.32107792732656
H         9.60262270418524    4.66466380458478    1.13356391215703
H        10.92565374785224    5.11011999943635    3.17599201856620
H         8.45453579671833    5.47158102666848    7.02551973463170
H         7.95924532569579    6.97827596914043    7.82225442415171
H         9.27899620565611    6.99670310736541    6.62352293985138
H         6.04741968853756    8.99205733436480    5.23471171905438
H         7.81718481369688    9.12900376592193    5.35424124294565
H         6.85022007813699    8.89692564194524    6.82207643958304
H         5.51856931719346    7.61970089320508    7.93820986431520
H         3.54514381654004    6.59934886767924    8.95509580059431
H         2.53016401145435    4.58198890881021    7.96789304073580
H         3.51207395893035    3.58488000747761    5.93214308759458
H         5.50798526717002    4.65132546371464    4.89157971546939
H         5.00482287057213    8.61826311280678    3.17674741469557
H         4.52260994855173    7.30466199075209    4.27218842152790
H         3.64689336090767    7.53860327192573    2.74226689507505
H         5.17692657124380    4.27446843415196    1.59547263147044
H         3.83657743430615    5.43212167877772    1.51119333489616
H         4.26883912573312    4.68757172022416    3.06741698196674
H         4.26065756648717    8.43755309386002    0.78232405225381
H         4.47545982359857    9.06296067045926   -1.57000427973096
H         6.22667066709362    8.05105678340192   -2.97941229309435
H         7.77710955550389    6.39234687507320   -2.00621938952517
H         7.57230051744131    5.78502487962998    0.38787526592577
H         7.18146040732781    9.71730845408960    3.06688154659223
H         7.18185898077691    8.94194437905475    1.47403137210306
H         8.47006201575919   10.09557615296849    1.88186699668215
H        10.71436597768749    7.02429321366080    1.71848767705557
H        10.43238000227728    8.72929564061537    1.30774931239721
H         9.39072981601092    7.45963242461882    0.61326863080530
H         9.26934075919044   10.74506680435165    3.85655258509910
H        10.87936727194889   11.64612213738580    5.45188009445889
H        12.47268738544062   10.15635246083904    6.60315290620739
H        12.42989562556960    7.72925693530413    6.14175854877411
H        10.77610246074059    6.81675368035392    4.55033655710803

