63
CSD_code = QEJSAC | q = 0 | S = 0 | Stoichiometry = C37H22N2OPd | MND = 4
Pd        3.98736728370207    8.63656964600009    4.48661977728374
C         2.21631661305534    9.24613581266965    3.89035756101253
N         4.24381987992628    7.59543634685258    2.76938313435039
O         5.96117870070573    7.96221593794945    5.14821614235605
N         3.78904045713667    9.65489903943955    6.22502493568233
C         1.32948804122577   10.07133431040624    4.62582651393354
C         0.12599303490512   10.28847645285213    3.81892252690329
C        -1.02708839084929   11.00678708049099    4.06231867139659
H        -1.17020696231854   11.54257689942201    4.98924618350726
C        -2.01257243039354   11.02998549789538    3.08245456223482
H        -2.92201696324891   11.58750866332749    3.25448867726331
C        -1.84463750862959   10.34949929653946    1.88802257111901
H        -2.62498807517766   10.38345396185362    1.14148746859787
C        -0.68634318942465    9.62372080797681    1.63623169808452
H        -0.56811441286436    9.09704258861732    0.70061820550186
C         0.29632841250325    9.59588277847072    2.60490512240617
C         1.60514434417834    8.93883913267291    2.64923595352049
C         2.13747514939606    8.15460018440755    1.64620364979784
H         1.56870700969512    7.99911259713507    0.73963802415908
C         3.38321830907449    7.53035176364963    1.71722940325246
C         3.94840200217008    6.72055146946885    0.68204481764296
H         3.47838440527006    6.51215556102295   -0.25965179196913
C         5.15776260785525    6.29706707047946    1.12548247596220
H         5.87081945297638    5.68304765630815    0.61136651603964
C         5.33939112944166    6.84449514148851    2.44204149263979
C         6.50226148042438    6.62108522331530    3.19783902341496
C         7.53517477758315    5.73004315292660    2.61131748231823
C         7.27950127620850    4.37196825355835    2.45512605301066
H         6.32252477058683    3.97462279446540    2.76077578285604
C         8.24218228708113    3.53715367098436    1.91732291018628
H         8.03481805511299    2.48343136499826    1.80212307624285
C         9.46804625129303    4.04981158477225    1.52694084972350
H        10.21840926023188    3.39761734692827    1.10544157290193
C         9.72799196147754    5.40161169322500    1.67696838945350
H        10.68129425860313    5.80658777566781    1.37048011101758
C         8.76830554109767    6.23797651827770    2.21863669211827
H         8.96751262761162    7.29403132200299    2.33013305494513
C         6.80589455092848    7.14482655682727    4.44737982156305
C         7.97545299920632    6.94969973662189    5.21559256941788
H         8.80834913558438    6.34398589788963    4.92153932823589
C         7.83294508224625    7.66680650650917    6.37144318919095
H         8.53530042957017    7.75642035326463    7.17502758100818
C         6.56627792922206    8.29129860780981    6.33074650289382
C         5.98222927528514    9.11113023218202    7.28706325229636
C         6.80686823108784    9.37227848387113    8.49384931905262
C         7.09831343837922    8.34875857170119    9.38846198364018
H         6.70706720738674    7.35796590329076    9.20773599415165
C         7.87078131413634    8.59886420031888   10.50858714746939
H         8.08753098210712    7.79818532254881   11.20048115989895
C         8.36405732363271    9.87124030269757   10.74358449241321
H         8.96851192783413   10.06485377819859   11.61718638774317
C         8.07876341462992   10.89496301185934    9.85555818657514
H         8.46162471437042   11.88897345981860   10.03440356089036
C         7.30305413410128   10.64852456909128    8.73736245864041
H         7.07907266125966   11.44518748733213    8.04288325492415
C         4.71264064175307    9.71003573726094    7.23253701898469
C         4.18018139658912   10.48973893453312    8.31627128386917
H         4.68512171447660   10.67950929109585    9.24299391940986
C         2.94485935862618   10.90289275331992    7.93955851287459
H         2.24949351228807   11.50279515972137    8.49435119694149
C         2.70977526977298   10.37856208114809    6.62935663148053
C         1.54740407039366   10.58823170332698    5.88673274100496
H         0.78253783750055   11.19928495923914    6.34619321456525

