46
CSD_code = QEJTUU | q = 1 | S = 0 | Stoichiometry = C21H18N3O3Os(1+) | MND = 6
Os        0.26406327910081    0.80507485245954    5.63174872315094
O        -1.53611394519068    1.61886434228194    5.29871492379612
O        -0.36574190369434    0.57050431476276    7.51471533723144
O        -1.23611529654505   -1.29160045776284    5.51407256661442
N         1.61797846564254   -0.65943803506252    5.84222095930401
N         0.47984358541039    0.34795445859869    3.68930480327062
N         1.27872106265238    2.12194087504075    5.70413927986781
C         2.19976017902826   -1.02389880825802    4.61740261711259
C         3.32678487916574   -1.83255804125162    4.48043311434820
C         3.83138357557836   -2.11684460811330    3.22534442845189
C         3.23275152331546   -1.58730464348686    2.09259955664872
C         2.12482930551421   -0.76861225108515    2.20593555080301
C         1.58969341206695   -0.48217065286226    3.46081982599896
C        -0.31094070746151    0.77106708568069    2.73628112476843
C        -1.43317330595125    1.61095873259016    2.88049412588577
C        -2.07689931758026    2.05371061870095    1.69467045627004
C        -3.16918487762110    2.87082787313182    1.73330705889744
C        -3.68844516674580    3.27479652673666    2.97245846077025
C        -3.11512333164048    2.85330627908702    4.14182473423528
C        -1.97512434393693    2.01588360912909    4.14820979688404
C         0.30781268235619   -0.00354427968882    8.46026293013915
C        -0.11906645451913    0.21949200315048    9.78947778361657
C         0.49174584791133   -0.39377498390663   10.85051773659721
C         1.55640004957569   -1.28390157517133   10.64762727683209
C         1.99163236783975   -1.53574573670472    9.37861738380897
C         1.40734781150617   -0.90289835970778    8.25024468120283
C         1.92813583086151   -1.22348880603916    6.98057291708982
C        -1.78357330782472   -2.06916167063629    4.46092859295535
H         3.83263196510880   -2.22756802130700    5.34627007162525
H         4.70373067275659   -2.74361524536811    3.13248907299708
H         3.63792691081367   -1.80144041710329    1.11667652363393
H         1.70046898910187   -0.34102423107311    1.31212823900867
H        -0.10758982783712    0.44441667333616    1.71858835585962
H        -1.66834835985379    1.74132315090594    0.74512958708988
H        -3.63348112876897    3.20775137073187    0.82076071095330
H        -4.55128898992212    3.92224463232184    3.00337510385846
H        -3.50613557419195    3.15285440238705    5.10151738993048
H        -0.94210424465125    0.90232784350826    9.93100140958346
H         0.14787235220752   -0.19338105055621   11.85366324248813
H         2.02463916162016   -1.76274979373102   11.49223064599633
H         2.81324126100975   -2.21679914215420    9.21380688227702
H         2.65595045883968   -2.03201920591688    6.97104947094473
H        -2.21642539641050   -2.99296536534308    4.85032306161873
H        -2.54938554244634   -1.51378648839280    3.91089402989533
H        -0.96647792643172   -2.32159738205038    3.78544158692688
H        -1.93340667975799   -1.10771039180692    6.15790786875941

