75
CSD_code = QEJVAC | q = 0 | S = 0 | Stoichiometry = C38H29ClN3O2OsP | MND = 6
Os        0.93658419932980    2.72615341617781    7.48910303475282
Cl       -1.08760852119155    2.68731404411860    6.51487917670412
P         3.51025623538372    2.86603330762960    9.59283750544523
O         1.47588351728774    4.39663883943766    6.36738818465386
O         1.68922596551166    1.37986611803596    6.09720081183201
N         0.24088086211012    3.86689968832775    8.95198269515975
N         0.40391588579980    1.25775836646424    8.70597000621655
N         2.67606248172983    2.79029620495831    8.27456745565320
C         1.58919338781047    5.56705812357642    6.86031286247091
C         2.17516171803647    6.57384569634537    6.03594185836176
C         2.41180173954976    7.83952856033306    6.48441505119759
C         2.06150430628609    8.20814770386123    7.79217434055431
C         1.46068501986219    7.29216115030351    8.60715531090366
C         1.19362529135613    5.96657867914401    8.19216654967031
C         0.52076380369199    5.13143041831295    9.11630374458235
C        -0.47417660600994    3.12530802462114    9.89497577188871
C        -1.27770806851822    3.66729960922269   10.89143595627910
C        -1.97742853517914    2.84098282483923   11.75299530397472
C        -1.89433571943628    1.46644984874837   11.62174181474649
C        -1.10996446051074    0.90643029877063   10.62882008591468
C        -0.38661478875702    1.71823659532619    9.76182166244985
C         1.90949621458770    0.14975937646599    6.34183110971181
C         2.58662776285074   -0.60985614032385    5.34006591365112
C         2.92656253960186   -1.91738308841228    5.51955962477615
C         2.60501770085257   -2.57891603025424    6.71583000062199
C         1.93278641871823   -1.90542214456185    7.69406634713168
C         1.55165860281577   -0.54899207520024    7.55749756839468
C         0.81664443350091    0.01906443115225    8.62268198036061
C         2.62463583661140    3.03812876507045   11.19045125760587
C         2.06960376434211    1.91019545941980   11.78481536304769
C         1.25679526701567    2.03887275888091   12.89518527491746
C         0.97375783622752    3.29633923036711   13.40356105248593
C         1.50493466815614    4.42480100519898   12.79993566942089
C         2.32346143893648    4.29878048100470   11.69255717498140
C         4.64368092673085    4.28994290848304    9.52419765264821
C         5.44259512156892    4.65914933578345   10.59880424287483
C         6.27487246462356    5.75755397178646   10.48204943669120
C         6.30616465413978    6.48502143178161    9.30191389653565
C         5.51378321614826    6.10991398756423    8.22893331647333
C         4.68797639280795    5.00594509322949    8.33646357517424
C         4.51835661882417    1.35940190683635    9.76689392868745
C         5.13853198171943    1.00187625077975   10.95698319666837
C         5.88064216199317   -0.16422506786958   11.01421734042900
C         6.00067385885016   -0.97002666356825    9.89243208344231
C         5.38619412199973   -0.60815890407179    8.70415364050896
C         4.65049427099127    0.56080888047625    8.63911665779471
H         2.44364994235317    6.27260258937946    5.03480216109172
H         2.87213091316946    8.56738400513370    5.83187304619171
H         2.25654609501604    9.21037319087873    8.14142537847277
H         1.17071204610754    7.57605178511919    9.61015969016798
H         0.22685056012011    5.61229330025214   10.04872946912447
H        -1.39199066709011    4.73632674247990   10.97895244941233
H        -2.60664120391260    3.27569754539928   12.51437616286690
H        -2.45938811387126    0.82405284484228   12.27978218002595
H        -1.09483335311748   -0.16619886582646   10.51385653952184
H         2.83141759725157   -0.08470001082149    4.42949514247632
H         3.44846560871932   -2.45255941984088    4.73938480017812
H         2.88149176352251   -3.61328323398188    6.85120653694095
H         1.67106952508812   -2.41451901415940    8.61195632216240
H         0.58813228916142   -0.66194299328489    9.44206425186795
H         2.29554313883882    0.93386682016516   11.37455299790651
H         0.83789383715213    1.16058616226579   13.36350560094584
H         0.33512203838739    3.39670112090601   14.26818415844391
H         1.28006065620542    5.40491023660869   13.19564572515237
H         2.74423833779582    5.17340131396943   11.21328627419885
H         5.40435088666260    4.09578760524165   11.52088421184370
H         6.89871285695931    6.05073554114346   11.31403580209000
H         6.95309550299443    7.34615385297005    9.22071548978050
H         5.53767160524097    6.67667221157110    7.31027429889639
H         4.06238443717093    4.68131862349812    7.51701896785014
H         5.02980790553313    1.62411414991821   11.83448131895137
H         6.36344837826200   -0.44867961232588   11.93797200011467
H         6.57557155034975   -1.88275314528899    9.94727970902938
H         5.47637907151729   -1.23592749187859    7.83032449068313
H         4.15875080608214    0.87004146729181    7.72758833506881

