94
CSD_code = QEJWEH | q = 0 | S = 0 | Stoichiometry = C39H42AuB9P2S | MND = 2
Au       -0.28120372393915    0.61483005599582    8.10344615012449
S        -2.70858588104280    0.67085309734059    6.49158937208288
P        -1.66185090720931   -0.88582688401112    9.17570787203417
P         1.31386150079900    1.99418006688485    7.20537611979604
C        -2.92373801851753   -1.70099687931502    8.17587263951433
C        -3.42152257589832   -0.93042510526193    6.93881768282713
C        -2.48747890715375   -0.09531210436699   10.60020802555806
C        -1.64645812971466    0.52913058262665   11.51996138440640
C        -2.16972138234868    1.22619270037301   12.59052619995123
C        -3.54501795657307    1.32223297433795   12.74356790081220
C        -4.38639125671436    0.71499516497013   11.82739071541075
C        -3.86379385265092    0.00969684085613   10.75576690359380
C        -0.70659758070458   -2.18946828121809    9.99666582355217
C         0.45971295710137   -2.62327756917949    9.37247340744806
C         1.21440468583597   -3.63621223223248    9.92995195091960
C         0.81366153732247   -4.21916935433974   11.12211369440215
C        -0.34164743725996   -3.78572137827974   11.75099981005037
C        -1.10256878614668   -2.77397063114889   11.19415324938197
C         2.31162525047283    2.91018435327444    8.40950321395861
C         3.54609589700304    3.45716576489004    8.06614648898577
C         4.27839533509508    4.14558990294966    9.01482193231187
C         3.78981674183617    4.28673447933527   10.30498238780621
C         2.56861901584703    3.73171239261980   10.65206833569305
C         1.83151040175202    3.04072005433045    9.70753516460873
C         2.58555965696185    1.05013868761066    6.31650986201482
C         2.92924855036943    1.25874129908783    4.98700572469914
C         3.89317431485457    0.45854943513504    4.39732242588303
C         4.51031502326464   -0.54549756677041    5.12425302850539
C         4.16344854285402   -0.75932781461893    6.44996453892981
C         3.20040442603874    0.03184042596126    7.04322054651047
C         0.75046155089792    3.21744969655145    5.99575410203339
C        -0.15202641076291    2.75086593119657    5.04193516109865
C        -0.62944905243928    3.60589838608298    4.06821042298473
C        -0.21489466055794    4.92834809701321    4.04727597581778
C         0.66681214474940    5.39717249891279    5.00724666054529
C         1.14807458673050    4.54862260281028    5.98824059504808
C        -3.62620160166244    1.81590729994691    7.63032400002827
C        -2.85394389105051    3.08024281656233    7.75556092275455
C        -2.90475397838692    4.03638723989386    6.74650298238652
C        -2.16294362579001    5.19805961469364    6.83947374843806
C        -1.34535982622592    5.41513915564704    7.93557021736467
C        -1.28367655921826    4.46879143315402    8.94339367966536
C        -2.03266898532314    3.30842845896016    8.85502597839359
B        -3.39182491875377   -3.59066867164804    6.17320562805163
B        -2.74640886531337   -3.44425800723012    7.82217958679079
B        -2.34868023358047   -2.24364865330876    6.59975692760429
B        -3.78200841534758   -2.00389667415954    5.59952794696305
B        -5.10590799785009   -2.95926954994502    6.26252645089363
B        -4.40962743844629   -3.90713670429803    7.60361577260602
B        -4.99752475797937   -1.18920623894698    6.66103753594800
B        -5.48093551444650   -2.52113269715447    7.99309183067054
B        -3.99871586360066   -2.71567143619373    8.86315255827304
H        -0.57251341202006    0.45224256778830   11.38403203037692
H        -1.51000033030011    1.69944993985253   13.30373538902989
H        -3.95752784039485    1.87111608076039   13.57712665420654
H        -5.45740554780481    0.78875878279567   11.94577899242583
H        -4.52481804445949   -0.48339884123132   10.05718497135023
H         0.76118211351927   -2.16459891041666    8.43750096757081
H         2.11425648436053   -3.97422860156258    9.43644368361352
H         1.40189558606584   -5.01250532366072   11.55915879990380
H        -0.65511987467975   -4.24231638291334   12.67836322411802
H        -2.00711395474974   -2.44255434478741   11.68305772426495
H         3.92636124852660    3.33408932411315    7.06073757766752
H         5.23465743140038    4.57207433584303    8.74960113976968
H         4.36668280726638    4.82483462464529   11.04218505381992
H         2.19424845701906    3.83419301502571   11.65990247744365
H         0.88015097478962    2.59241085759234    9.96449419565882
H         2.44520537707918    2.03936230146225    4.41678863021045
H         4.16147027330104    0.62012364443842    3.36388195627116
H         5.25945716675584   -1.16667138922825    4.65706019617884
H         4.64012012294404   -1.54598161840825    7.01554272941087
H         2.91249694728378   -0.12784386915229    8.07573425340501
H        -0.47687733846112    1.71917852549045    5.07417431109005
H        -1.32688569166109    3.24147406485483    3.32961430868103
H        -0.58580361762864    5.59738434843516    3.28502340765141
H         0.97970010074935    6.43096422678015    4.99480984568890
H         1.82718310549454    4.91868192413821    6.74316595243375
H        -4.60896714408807    1.97549415720201    7.18738199106755
H        -3.72302124920018    1.30800555837597    8.58969100469654
H        -3.53621582902587    3.86332997829957    5.88761309513079
H        -2.22313397645869    5.93809539763942    6.05538951775886
H        -0.76493567122793    6.32293617153710    8.00913765563811
H        -0.65965059375032    4.64357626473407    9.80809959919898
H        -2.00800055878712    2.58705283265722    9.66175776856228
H        -3.03787688547268   -4.44690756112012    5.44457240917247
H        -1.85143608577179   -4.04543104558659    8.30397483679388
H        -1.24866251202113   -1.93441593651569    6.28393694672204
H        -3.66674132771495   -1.54720573076299    4.52055073761517
H        -5.94109781013291   -3.38748784515496    5.54541127213685
H        -4.81452166190091   -4.97585094426058    7.89499358049239
H        -5.63877991300283   -0.33666767350525    6.14608872377644
H        -6.58079389380315   -2.73316368581100    8.38257986555489
H        -5.42998852601469   -1.23614393224938    7.91691320709734
H        -3.88415203023640   -2.91396236241802   10.03027808056011

