31
CSD_code = QEKBOA | q = 0 | S = 0 | Stoichiometry = C12H10F6N2Ni | MND = 4
Ni        2.22329327266578   10.63364368293255    6.62836602974381
C         3.43572616383055   11.98872647120356    6.96585538996783
F         4.30112602946679   12.21318356643382    5.91988069669345
F         2.57786251051139   13.07534036413992    6.91896238327113
F         4.20105119632484   12.20753286690041    8.04898213249461
C         2.12401320985076   10.21338868065260    8.42618102136274
F         2.91641214054609   10.57944380047434    9.44739629745774
F         1.87880759384701    8.88419911091043    8.67700396743472
F         0.90728008091700   10.82679124100118    8.69293016182730
N         2.14615334952303   11.17245950588095    4.72436843859970
N         0.86277035432629    9.24840842857714    6.22731021339741
C         1.30908161521907   12.13788400654984    4.35113283104393
H         0.67702162448725   12.55910457121287    5.12398249965210
C         1.24829027742179   12.61004456720626    3.05142441276453
H         0.56045038677509   13.40049473636995    2.79702701423569
C         2.09078743413734   12.05882633373146    2.09971113149087
H         2.07577401022627   12.41048297437099    1.07915512057076
C         2.96047788844824   11.05298712447235    2.48956832392683
H         3.63968328106432   10.59932614805073    1.78562306411019
C         2.95695385338503   10.64279005528099    3.81108721773260
H         3.63833333843017    9.87380950690598    4.15453443380127
C        -0.43661593328405    9.51812802044550    6.32629884479000
H        -0.70344383854040   10.53417000080217    6.59073671729671
C        -1.41440443446624    8.55883541201878    6.12671460491537
H        -2.45537359166501    8.82179604947496    6.22640981901644
C        -1.02844277228679    7.26601645844186    5.81240041982594
H        -1.76503230912538    6.49177010152282    5.65944288375334
C         0.32491361805870    6.98680430582171    5.70825105607302
H         0.67282562059471    5.99363274159684    5.47314492694293
C         1.23507537159172    8.00587092894015    5.92624036254942
H         2.30104865771904    7.81790823767822    5.87387758326572

