33
CSD_code = QEKCER | q = 0 | S = 0 | Stoichiometry = C12H10F8N2Ni | MND = 6
Ni        1.66575302905619    5.91119471989355    3.13466291481332
F         0.27945067891332    6.86511139303342    2.67612487269353
F         3.06182825215088    4.96844545316650    3.58687403281462
F         2.69653723036771    5.01519107889053    0.86930916170176
F         1.86066367994714    6.97047649231372    0.66193333543408
F         3.76435084287631    6.71214415708530    1.61473904287316
F         2.43713012793188    8.50524861490126    2.95857024433449
F         1.58622470848000    7.93469019322716    4.83661589705598
F         3.58693954523850    7.35725545182664    4.35876541473173
N         0.69769876915731    4.18753388357904    2.38638738236315
N         0.76781666913300    5.42761610581489    4.98555043875593
C         2.53855490425484    6.19164077981380    1.51351822219453
C         2.36627095594443    7.49242067708818    3.82681237431263
C        -0.28210262008457    4.29883999521332    1.49256621537826
H        -0.59967045708357    5.30146423019840    1.24105599237808
C        -0.87708056328668    3.19815488542503    0.90006937972498
H        -1.66502362385173    3.33878426817248    0.17779387822773
C        -0.43542995707816    1.93126616400285    1.24432372722511
H        -0.87282071296863    1.05210107082535    0.79538596284134
C         0.58560605082173    1.81944879394228    2.17421204753339
H         0.96809988390217    0.85606548662663    2.47147944665376
C         1.12476605236356    2.97231894503692    2.71820367533983
H         1.93489723974508    2.92085687089128    3.43204106913960
C        -0.53568888058414    5.61274538669549    5.17470154857042
H        -1.10665102880068    5.95059031772121    4.32125811931723
C        -1.14684900373578    5.40796291587518    6.39953497733923
H        -2.20675378359432    5.57594185441040    6.50502738878356
C        -0.37415269336118    4.99817510471051    7.47381490232579
H        -0.81816552459661    4.83694857391308    8.44475566537157
C         0.98304300194408    4.80708212803747    7.27381275386402
H         1.62845197676213    4.49360791258363    8.07875895130178
C         1.51346742467293    5.03503299268928    6.01559461128655
H         2.57003782536535    4.90024310239427    5.82834635331712

