67
CSD_code = QEKDOB | q = 0 | S = 0 | Stoichiometry = C21H39ClNO2P2Rh | MND = 6
Rh        4.80518295025974    8.47006322516763    3.04770191878851
P         5.55440057770252    8.58466236410729    0.87867482505707
P         3.76409801661142    8.62040821664163    5.09173990839624
Cl        6.93536477338228    9.12607403947625    3.90724785985180
O         3.71780344909268    9.98775501489683    2.52974216194681
O         3.01904370588149    8.82144205978062    2.36842899196450
N         6.16771945583298    5.77692406399615    3.57875023976118
C         5.54421118352915    6.74718647316513    3.36975288122458
C         6.92223555561135    4.70446047888560    3.92221640591007
C         8.31523011899443    4.83393349240065    3.99334970185829
C         9.04568867730082    3.71369681233794    4.36374693996589
H        10.12103315425072    3.78921956413213    4.42925939121511
C         8.42076950237898    2.51278391022594    4.64799830488773
H         9.00984963389729    1.65416367105493    4.93315916125178
C         7.04176641346226    2.40631259016577    4.57045092563587
H         6.55892251929065    1.46669354111154    4.79491115068119
C         6.27019222746618    3.49703825421564    4.20903145179406
C         8.99012524649319    6.12544936254869    3.66100409821000
H         9.16672084172265    6.18427268250628    2.58606623464450
H         9.95228972416079    6.19080880786098    4.16239034125792
H         8.38469798894133    6.98717760692262    3.94048450042004
C         4.77677116440675    3.42229235832967    4.12877461366355
H         4.43108848163922    2.40923259150598    4.31555343769217
H         4.42729873487407    3.73969341349000    3.14633859255370
H         4.32606605936859    4.08658090866409    4.86677701605019
C         7.23161142063748    7.86886118440575    0.58571938593383
H         7.89163265441592    8.35454651359613    1.31013879586649
H         7.16900647957822    6.81380720592324    0.86887611384426
C         7.78969582823520    8.00404189606794   -0.82355731410364
H         7.13966827335565    7.52863557937674   -1.55491711360486
H         8.76450932293115    7.52184399657929   -0.87902633687307
H         7.91836656802845    9.04751627307490   -1.09875442645175
C         4.45145026197087    7.74736497455663   -0.33540860959889
H         3.50042292489846    8.28456597939705   -0.29284147239739
H         4.86803244596181    7.85683639651877   -1.34025434769871
C         4.22585592687458    6.28384777368845    0.01734800700996
H         5.15687843945711    5.72017676140835   -0.02063133260587
H         3.51986640662292    5.82770079830690   -0.67425801371750
H         3.81588763735714    6.21446145426605    1.02574949380969
C         5.62740492490174   10.27473418493081    0.16102800351884
H         5.90131559120769   10.19727022795890   -0.89591858192989
H         4.61131636195929   10.67251044673141    0.23235536722394
C         6.58508032883654   11.17743888325853    0.92732584379421
H         6.30266424686648   11.20072089991276    1.97886607278217
H         6.54536967559882   12.19325919917286    0.53832301448209
H         7.61037992215699   10.81890171380258    0.85914250208486
C         2.42644970738543    7.35431761493310    5.24807962922339
H         1.74827888085608    7.55268865549813    4.41288120639281
H         2.89247150824140    6.38191595358364    5.05791698683817
C         1.66063984919401    7.31990046842164    6.56395879341013
H         2.32239400174207    7.11394673865927    7.40206463672103
H         0.90968363562673    6.53222386655156    6.52748119398814
H         1.14739652374474    8.25991523880329    6.74814840446008
C         2.87475343117656   10.20273042366259    5.38092383275305
H         2.14208523218522   10.29501912594090    4.57494961730686
H         2.34891360967590   10.13825857223932    6.33850914699851
C         3.81626475641620   11.40158641033671    5.36022183435702
H         4.52731473039677   11.36362088736063    6.18298831785699
H         3.24865587680615   12.32716118682543    5.43721420428926
H         4.36753894889451   11.41443235392716    4.42091143783312
C         4.75569669623399    8.46786928779840    6.64020952989687
H         5.51301284527812    9.25468908037061    6.60079893463511
H         4.09461509957987    8.66580336099429    7.48902027777625
C         5.45305240913990    7.12353324164963    6.78633946970055
H         4.74387279633843    6.29837941777916    6.75003750216449
H         5.98386180889405    7.07671751949966    7.73561958664128
H         6.17906185391791    6.99832274873473    5.98716935071175

