67
CSD_code = QEKDIV | q = 0 | S = 0 | Stoichiometry = C21H39Cl3NP2Rh | MND = 6
Rh       12.77509178030002    4.12684289616785   -0.00105685391713
Cl       14.14830129475662    5.97696107462036    0.19272595460620
P        13.25632279438769    4.23152592856430   -2.26634297118019
P        12.50953092517758    4.29906229125544    2.29876675318557
Cl       10.84431816375910    5.42163197823048   -0.34113812486376
Cl       14.60848446338789    2.70492667003281    0.32011356091681
C         9.73310518937741    0.95297718422791   -0.14297207784173
C         7.39213118886306    0.51451893115210   -0.01484634966083
H         6.37549979250301    0.86392390235965    0.08666997730044
C         8.16341011187886    2.89905203963670    0.18221894254830
H         7.14518990845170    3.14460733097022   -0.10741178186579
H         8.85525273680836    3.51501507006782   -0.38985911241070
H         8.28839143852363    3.16725823693810    1.23263933956829
C         8.94789436041203   -1.29742135581531   -0.27471367577455
H         9.13998559258190   -2.35529377746515   -0.37424610612610
C         7.64725964639649   -0.83882589042236   -0.15063108038049
H         6.82776892913097   -1.54146836394923   -0.15681457175578
C         8.42592635495774    1.43913216606832   -0.00383878661862
C        10.01445079481369   -0.41308270649912   -0.27429896981476
C        11.58876430594254    2.66053178779405   -0.12847217467653
C        11.44722485320283    5.66749122298771    2.92148578391217
H        10.46985309206399    5.54093821483940    2.44584162526319
H        11.32708779215983    5.52187134964248    4.00005306210934
C        12.69995630020156    2.77028571663378   -3.25135342130342
H        11.62722436765868    2.66019775980742   -3.05898792111264
H        12.82585903239161    2.99342527459534   -4.31449194600742
C        11.66788971885654    2.86627840258577    3.10870490212770
H        11.46637533535605    3.11988429405158    4.15309004562082
H        10.70319318252237    2.75069033923571    2.60400355507059
N        10.76211295743005    1.83631072542144   -0.14500581912539
C        12.45883216723521    5.57610630893241   -3.23800480511811
H        12.69586991682181    5.39836937758870   -4.29209968935537
H        11.37940423220513    5.45683609111360   -3.10398887450612
C        11.42707471409921   -0.88265439610747   -0.42107815063893
H        11.49195801599416   -1.95631928909072   -0.26691848591986
H        12.08261806697402   -0.38223925032828    0.28989975420200
H        11.79630237868623   -0.65616793010304   -1.42135029781959
C        15.05434688339240    4.37530285790416   -2.62132464682092
H        15.40237557963529    5.26328068168201   -2.08535976207498
H        15.52743091712405    3.51039446453100   -2.14696132531249
C        12.47353443204830    1.57697016269643    3.01160698731927
H        12.85744663599195    1.44172472157398    2.00136984422834
H        11.85522689850487    0.71841248271014    3.26914769655103
H        13.32435100449258    1.60055834182534    3.68814223953722
C        12.87806502449646    6.97722746926845   -2.81594468338384
H        12.60888561593357    7.15406740592955   -1.77778250916148
H        12.37148852340294    7.71854391359328   -3.43154390386664
H        13.95229162362046    7.11671956076452   -2.91627075635238
C        11.98937685033849    7.05692367539435    2.61725686101130
H        12.97160529974104    7.20517387033078    3.06071449116488
H        11.31259228014889    7.81454720635954    3.00850409885323
H        12.07727995708117    7.19938908871816    1.54324251461613
C        13.43863294950937    1.49240322561471   -2.87706383991448
H        14.47062942965092    1.52747348486829   -3.21754594112909
H        12.95980024030541    0.62807317594011   -3.33535775267671
H        13.44877204467020    1.35951515713442   -1.79615487480775
C        14.10299727476255    4.46699111194969    3.19939542067112
H        14.69811470703462    3.59013221062378    2.92734241995159
H        14.60563361022982    5.33961977497070    2.77175220447711
C        15.43174055788675    4.45663493619125   -4.09417492254358
H        15.09269192738207    3.58134854091942   -4.64407876282501
H        16.51543281842671    4.50864064338565   -4.18311290790912
H        15.01585310922007    5.34527624441873   -4.56308817073744
C        13.99605261937201    4.59798321628260    4.71255698290597
H        13.45013693900652    5.49443138784461    4.99702629731056
H        14.99612434211365    4.66739805980303    5.13678805547859
H        13.50417400826925    3.73486332113743    5.15582743678922

