125
CSD_code = QEKFET | q = 0 | S = 0 | Stoichiometry = C56H56N2NiO4P4Se2 | MND = 6
Ni        6.83803780878976    4.70386426575554   -0.00004249106084
O         8.49009887022865    4.44478200500191   -0.83520822984690
Se        7.76656117582838    5.42765786258225    2.09003416379979
N        10.44976502107703    5.91247850706913    0.26609279370305
P         9.92976207416024    4.85346006222208   -0.85985641878987
P         9.86217325774483    5.88654344056376    1.76983244006576
C        10.92164269450093    3.32987778613751   -0.80916315958412
C        10.34475434693514    2.14792711402804   -1.25251462219950
C        11.06941001503042    0.97113847717972   -1.20099372794262
C        12.36502480554515    0.97627898833597   -0.70875330430845
C        12.94130425232317    2.15860096556000   -0.27279645431839
C        12.22143178150094    3.33800093459551   -0.32726576482046
C        10.28114925031505    5.65670869519765   -2.44480224316529
C         9.35405680542944    5.53490526750260   -3.46989548410525
C         9.58979687515858    6.15346083272023   -4.68505810636421
C        10.75078123927239    6.88611071063484   -4.87399293235878
C        11.67731571244920    7.00394998991047   -3.84928784884906
C        11.44465793876091    6.38810177052492   -2.63324888813227
C        10.93844443697196    4.82047457059775    2.79952077551344
C        10.45395967436941    3.80763508687026    3.60903041349348
C        11.33865826781476    2.99596991122815    4.29777558646465
C        12.70288001605934    3.20104776695306    4.17947208622766
C        13.18738106790544    4.22679655717950    3.38201850313518
C        12.30635671097157    5.03675368356065    2.69186617803570
C        10.19942296912603    7.54669544371011    2.41544872699800
C         9.91132166027518    7.80591651179477    3.74876807745593
C        10.14650718009176    9.06409859085818    4.26892253806648
C        10.66325426376804   10.06220151873014    3.45611860219566
C        10.94030518978689    9.80385997405654    2.12379496174310
C        10.70807840747534    8.54427159615932    1.59928638347362
O         7.00550111048387    2.43849093397185    0.63819443291820
C         8.09615252653363    1.90963674676854    1.36385796382550
C         7.47899555595780    1.51205932392054    2.70213181181242
C         6.13170787517307    0.93003582604175    2.26036397242205
C         5.91813257626871    1.55599913871063    0.86822168700805
H         9.32934993698500    2.16852821787313   -1.62214326118498
H        10.62585600552827    0.04737595468921   -1.54423517165846
H        12.92857669832823    0.05536538983806   -0.66487365137569
H        13.95144385158874    2.15986235841088    0.11069929851302
H        12.65349088352928    4.26782110089094    0.01187329109899
H         8.44804809436253    4.96462169486779   -3.29872303703344
H         8.86817988393076    6.06527574054251   -5.48419100689530
H        10.93460401193397    7.36967530834960   -5.82266070055044
H        12.58018976739317    7.57785275566835   -4.00126192621109
H        12.14922172433060    6.47471697446383   -1.81939294988608
H         9.38444544773161    3.67225392932053    3.70106922115217
H        10.96293597542580    2.20283171194016    4.92771399500291
H        13.39248115994274    2.56406723525186    4.71400252946410
H        14.25210480553707    4.39184162511157    3.30070599696675
H        12.66077981190998    5.84432662498622    2.06515918893450
H         9.49294560360148    7.01357314699790    4.35620055573095
H         9.92637285536390    9.27135682688028    5.30598734354896
H        10.84628879288907   11.04611554299524    3.86321007500962
H        11.33716407520809   10.58603315290712    1.49251512708281
H        10.91593315286591    8.31887407487133    0.56315892863912
H         8.87366055021540    2.67325989503773    1.43475804073593
H         8.50488870604609    1.03031314833527    0.84218095566768
H         8.09249785823435    0.80724084829023    3.25836474225935
H         7.31788362609841    2.41039819810219    3.30084767690371
H         6.17663312349261   -0.15660776382443    2.18746856644802
H         5.32960083657095    1.19823323490140    2.94551281229184
H         4.99376933877112    2.13412111531851    0.80554113168041
H         5.90676547136861    0.78414396653458    0.08435665566488
O         5.18606883604149    4.96288538414206    0.83530810700409
Se        5.91093953736035    3.97737104397545   -2.09001093510728
N         3.22652026938941    3.49517778220646   -0.26613257127401
P         3.74643301271669    4.55413138609977    0.85990206301655
P         3.81418399120447    3.52130703353037   -1.76983928510794
C         2.75452194033573    6.07766822947977    0.80918103573476
C         3.33135208525992    7.25966222128383    1.25249427673012
C         2.60663132447464    8.43640722079322    1.20090003446734
C         1.31102373326992    8.43116965789389    0.70863660254048
C         0.73481373087154    7.24879877618063    0.27271577207332
C         1.45474852261905    6.06944326736721    0.32725033376187
C         3.39506329671617    3.75084840871399    2.44482415687152
C         4.32209877408240    3.87273788259080    3.46996032567214
C         4.08633314351559    3.25419827341345    4.68512595711121
C         2.92537636770295    2.52149621922930    4.87402093230302
C         1.99890674311649    2.40356392105056    3.84926634929031
C         2.23159423953808    3.01938680704781    2.63322071143172
C         2.73780992715856    4.58719230566705   -2.79960392604124
C         3.22231108631343    5.60002638327811   -3.60909194481405
C         2.33765601489586    6.41168152290888   -4.29786872701374
C         0.97343387173741    6.20658821994260   -4.17963119642097
C         0.48890526910229    5.18082392884851   -3.38221336041830
C         1.36990601863833    4.37086570229563   -2.69203447839273
C         3.47716845067750    1.86104981392064   -2.41542183792615
C         3.76527570129205    1.60181310507705   -3.74874606675500
C         3.53005600833616    0.34363278179061   -4.26892224356683
C         3.01329428760509   -0.65448633601232   -3.45614273865093
C         2.73618227990865   -0.39614225160364   -2.12383406203269
C         2.96845073448617    0.86344190583790   -1.59929403990766
O         6.67076077666874    6.96929171044921   -0.63810053310010
C         5.58012360358731    7.49815934313257   -1.36376915565699
C         6.19733475234332    7.89567951374497   -2.70201947622105
C         7.54464260461258    8.47762493314894   -2.26018972304268
C         7.75819570046358    7.85170809867231   -0.86803040831350
H         4.34677148515336    7.23913949888165    1.62209802041260
H         3.05013943545049    9.36021547927915    1.54407501105993
H         0.74742246197831    9.35204935220552    0.66469878610409
H        -0.27532488481140    7.24745720873307   -0.11078240057516
H         1.02275384642939    5.13957893103278   -0.01185227043565
H         5.22805453908386    4.44311705189167    3.29883500119959
H         4.80789209243498    3.34246161043737    5.48430274278626
H         2.74151787759578    2.03797519657211    5.82270163502472
H         1.09604404239391    1.82963730636539    4.00121470612333
H         1.52707538839894    2.93273014797170    1.81933075238705
H         4.29183175123380    5.73545289329824   -3.70104918009406
H         2.71342276350275    7.20483728839473   -4.92775971854819
H         0.28385830469190    6.84356756827308   -4.71419129497246
H        -0.57581849104816    5.01578671209352   -3.30092193513635
H         1.01546318404339    3.56330249095923   -2.06532102534248
H         4.18356917477868    2.39418303888003   -4.35619744781725
H         3.75022120504359    0.13636882516241   -5.30598034261417
H         2.83032088596661   -1.63841886871025   -3.86323278863003
H         2.33929148978324   -1.17832935465470   -1.49258104960467
H         2.76045428094770    1.08884272215853   -0.56319357440727
H         4.80259920752956    6.73455533992958   -1.43471498986301
H         5.17139685550918    8.37748804510986   -0.84210640792913
H         5.58384063277832    8.60050321037230   -3.25826358990813
H         6.35841234820436    6.99729543353375   -3.30069513929400
H         7.49976959207381    9.56426733715949   -2.18731084990433
H         8.34676710236617    8.20937815724128   -2.94529637985527
H         8.68253229053525    7.27354288945512   -0.80527702283281
H         7.76950903862914    8.62354742569015   -0.08415604608779

