125
CSD_code = QEKFAP | q = 0 | S = 0 | Stoichiometry = C56H56N2NiO4P4S2 | MND = 6
Ni        6.89677187538910    4.74788867028362    0.00013419172633
O         8.50097407828021    3.96452867446796   -0.52293839836045
S         7.84299481528113    5.54980148675989    2.07033327977503
N        10.19064444930682    5.97356960810578    0.07397273831124
P         9.77310617498148    4.69148900034977   -0.85636122447707
P         9.77561648732050    5.87231182120044    1.63147214027798
C        11.09973873324983    3.45422681282572   -0.70763218872890
C        10.86916054788324    2.28779868715275    0.00481844795571
C        11.90743007580059    1.40660596193972    0.24443397362815
C        13.17722238769300    1.69220710767306   -0.22894977221537
C        13.40800552291644    2.85558244979071   -0.94606176254207
C        12.37097477961602    3.73898884081937   -1.18246507978238
C         9.82047610242708    5.31018058432165   -2.55304286873526
C         9.09875000775530    4.63276817276465   -3.52501105087217
C         9.11893897363830    5.08308230899404   -4.83343133250529
C         9.86738837333022    6.20002806775715   -5.16983469231649
C        10.59212445444767    6.87266050310439   -4.19805115245205
C        10.56879207979972    6.42846663159520   -2.88805690784382
C        10.82492683469371    4.63379506702280    2.47598338194225
C        10.30855616661680    3.69810777871610    3.35759144635274
C        11.14046001762339    2.73071680576353    3.89451522382920
C        12.48222729361186    2.70242669629685    3.55374212387746
C        13.00167215601218    3.65049164984924    2.68565561394683
C        12.17452360960346    4.61683099658756    2.14759647103269
C        10.29919432515568    7.44634256727860    2.36156271593683
C        10.10499225581169    7.64643145331777    3.72148069114619
C        10.49158402439336    8.84054225810373    4.30008340669714
C        11.06785778565610    9.83239472162551    3.52099617119032
C        11.25688774588996    9.63198524652159    2.16339345590979
C        10.87284198050384    8.43733947824278    1.58094221697885
O         6.36224485970818    2.72070270899081    1.09937531342146
C         6.92561027849975    2.35309421401105    2.34738839595890
C         6.26389027575829    1.02145392119709    2.74583087606959
C         5.63130725604478    0.53040193397797    1.43542475501987
C         6.20046436545375    1.50014438559576    0.39767095180926
H         9.87017254933082    2.08611827058771    0.36342844158329
H        11.72982725762550    0.49919327751036    0.80364537271085
H        13.99023134207910    1.00636750625195   -0.03927851025146
H        14.39959403229078    3.07400795122813   -1.31610079247719
H        12.53660673980817    4.65482586527020   -1.73250914417740
H         8.50740355621907    3.77490984406470   -3.23754657685179
H         8.54994682765455    4.56455316579984   -5.59129565033298
H         9.88400848056892    6.55071506188672   -6.19201604317991
H        11.17281458857459    7.74490033583179   -4.46487977647771
H        11.11561470611898    6.94334864205382   -2.11228925558942
H         9.25908357592136    3.73938968867805    3.61352702042686
H        10.73978141187087    1.99623277649389    4.57862974448546
H        13.12783173868672    1.94119228729799    3.96713574063982
H        14.04982699649828    3.63029235384805    2.42532803683164
H        12.55713973421664    5.36003340619860    1.46157026231029
H         9.64369502093047    6.86222171316299    4.30590692055899
H        10.34429407353909    9.00219730141847    5.35802506970768
H        11.36897419448081   10.76552474343258    3.97465715512157
H        11.70489658970124   10.40830649869874    1.55985682615065
H        11.01138971352599    8.25224570125948    0.52626433057504
H         6.73303513644243    3.16376688816590    3.05032192100694
H         8.01122505665761    2.21936112880901    2.23069633227018
H         7.00549440050987    0.32120391633061    3.12795957981276
H         5.50968440118133    1.17881968841709    3.51458910448510
H         5.87929010517582   -0.50318363249144    1.20323412772638
H         4.54801253448382    0.63224890445508    1.47464419309010
H         5.53238087756754    1.67190560474244   -0.44728760042542
H         7.17430982490938    1.15239667173297    0.02279773665941
O         5.29245093755856    5.53125269459964    0.52298555140691
S         5.95056621669084    3.94577940967017   -2.06993265033465
N         3.60276127077069    3.52222342247395   -0.07392770662710
P         4.02032443459284    4.80429620401966    0.85642782608779
P         4.01781024702776    3.62352760319612   -1.63141292862136
C         2.69371603299480    6.04158524809225    0.70769705677981
C         2.92428069180331    7.20781025647311   -0.00509522089769
C         1.88605017725208    8.08902042409172   -0.24480372509337
C         0.61630969873497    7.80365615626632    0.22886275075345
C         0.38554465357554    6.64049505036477    0.94632834771937
C         1.42253294870884    5.75705550624071    1.18280446003825
C         3.97293927216656    4.18559296957210    2.55310927747245
C         4.69446789802502    4.86306333416532    3.52518611923348
C         4.67419241887663    4.41268154747176    4.83358503154029
C         3.92587369951985    3.29560791370352    5.16985501807817
C         3.20134300934944    2.62291272380006    4.19796199745846
C         3.22474575607221    3.06718486896400    2.88799563327115
C         2.96852634723752    4.86207448684693   -2.47589911732001
C         3.48497053790203    5.79789860746760   -3.35731227491132
C         2.65309037091038    6.76530251971431   -3.89424511874400
C         1.31125654680183    6.79342356695106   -3.55372829175930
C         0.79173795872093    5.84522406989218   -2.68583301141988
C         1.61887751119180    4.87891041399132   -2.14771426097976
C         3.49414179522497    2.04956902542981   -2.36157897855543
C         3.68831627092202    1.84963416221529   -3.72152530690695
C         3.30182498409127    0.65554729227209   -4.30023250816865
C         2.72569527055842   -0.33644818028572   -3.52121687997580
C         2.53663635034723   -0.13617251604932   -2.16360021860596
C         2.92055888680611    1.05846764758259   -1.58104668379333
O         7.43116927816520    6.77494393161472   -1.09946119954883
C         6.86786336172275    7.14252901813751   -2.34750933515519
C         7.52940003162961    8.47429890367921   -2.74581283537247
C         8.16179488378765    8.96538284318668   -1.43532769725682
C         7.59270696865016    7.99548958318216   -0.39768142037479
H         3.92323109073633    7.40932306541066   -0.36390711575297
H         2.06364359512129    8.99626637183021   -0.80429011230526
H        -0.19667285412183    8.48951123821763    0.03913545615381
H        -0.60600201782481    6.42226474589718    1.31659483227432
H         1.25690716266261    4.84139249384639    1.73313928677638
H         5.28574155267581    5.72100746036828    3.23782765717459
H         5.24300258416298    4.93126234229754    5.59155163348592
H         3.90918096157037    2.94487990076688    6.19202167754053
H         2.62075429962598    1.75057285277229    4.46468448889513
H         2.67806915463109    2.55229263739150    2.11213464883889
H         4.53447553154511    5.75668155156819   -3.61311679816094
H         3.05383962317293    7.49990135971916   -4.57819467453879
H         0.66566384700947    7.55465379044083   -3.96715181112454
H        -0.25646602462479    5.86531181454875   -2.42569689539375
H         1.23621866418266    4.13561871621856   -1.46180640108027
H         4.14956912576646    2.63393501926710   -4.30586776732764
H         3.44907895676564    0.49399450774558   -5.35819003972082
H         2.42459661421896   -1.26954144148089   -3.97496736998469
H         2.08869315795471   -0.91257492632319   -1.56011399170104
H         2.78206126381700    1.24341536461811   -0.52633674091861
H         7.06063308580991    6.33192597804402   -3.05046955855154
H         5.78222021943247    7.27608291200487   -2.23089905980343
H         6.78770432690142    9.17444645341111   -3.12795367974914
H         8.28369031306333    8.31711385501965   -3.51452486186068
H         7.91361316582956    9.99891042197774   -1.20309644035442
H         9.24510959561508    8.86371362726841   -1.47444852475246
H         8.26076598982653    7.82378250943678    0.44730419936420
H         6.61878367939911    8.34305183457806   -0.02283985519421

