31
CSD_code = QEKJAR | q = 0 | S = 0 | Stoichiometry = C9H13Cl2HgN5O | MND = 4
Hg        4.70213850423354   11.19758405808113    1.33332905081402
Cl        5.02066702356794   10.41137141371919   -0.80415708956357
Cl        3.82928564248681   12.02665032158511    3.27934108565914
N         6.99367526633991   12.60293011144456    1.40860191292841
N         7.11777982431709   13.81392722786823    0.68181462568235
N         9.39077584736636   13.42438010337337    0.30749091323589
N         9.33275506257130   12.23367849121870    1.06286020221537
N         6.74866208518188    9.99377343278819    2.23224470178973
O         8.30350964123490   15.09100648663767   -0.76575066601269
C         8.26988953891672   14.15347107511683    0.00584056638898
C         8.01466403594394   11.64448916900370    0.97369500875559
C         7.93889442865760   10.35685088646679    1.75859264494653
C         9.07965660531891    9.58609200309185    1.94667607880864
C         8.97669255794351    8.40343501234694    2.65923857961272
C         7.73983799665383    8.03587053321458    3.16515151215420
C         6.65612197544255    8.86199324020459    2.92223224587830
C         5.86606799563639   14.41640106859982    0.28793639203141
C        10.58675994453007   13.57301282387441   -0.49036501678376
H         7.12790875288089   12.80254203468986    2.40775512698168
H         9.56675392718526   12.43551068353380    2.03842776808468
H         7.81809501417705   11.42643536132375   -0.08801294986233
H        10.01705974060500    9.91781653926255    1.53114517837919
H         9.84568279249341    7.78272047318779    2.81677098318762
H         7.61369085246246    7.12679534687949    3.73061135275097
H         5.67107720386059    8.61852041945208    3.29798832501964
H         6.09934873000195   15.28060309468184   -0.33009969239556
H         5.31613370552093   14.73131596590058    1.17620769229681
H         5.25935718455662   13.70850770031900   -0.29364775052884
H        10.46174602017257   14.46404574559138   -1.10040325880228
H        10.73181172926284   12.70113680520087   -1.13107008625545
H        11.45040037047778   13.68883237133011    0.16495456260312

