55
CSD_code = QEKJAT | q = 1 | S = 0 | Stoichiometry = C21H25N5O3Re(1+) | MND = 6
Re        6.87037554030484    9.14097908411750    9.07563603120057
O         5.62521551290277   11.18360799102998   11.03910357127055
O         9.48212698863133    9.79810239854180   10.59948404631030
O         6.12667385830657    6.72105527869744   10.85018987732871
N         7.65918780782980    7.85569604585804    7.47208534396088
N         5.18020903398874    8.83858195455336    7.70643669566705
N         7.48528761847635   10.69616044509597    7.58457442777953
H         8.41401906193125   10.46091208608804    7.23863856527003
N         7.65010591244349   12.51902753969566    6.14501376429542
N         9.59447879248257   14.53857733623523    5.91818012720569
H        10.27579808965130   15.22144251889846    6.22732141198143
C         8.80378372903344    7.16740672276202    7.46050666051466
C         9.32463966467596    6.64594982781563    6.27633274727966
H        10.25637826801089    6.10470925433554    6.30098802052636
C         8.64185738102483    6.82690110609423    5.09053784649442
H         9.03203510166473    6.44258959474612    4.16144767019999
C         7.42533130625675    7.48713239879673    5.12124057774055
H         6.85710126749638    7.59606907222825    4.21404667733320
C         6.95131111527082    7.98466968979619    6.33100976925922
C         5.60831459016488    8.58264176900862    6.45254788660583
C         4.78761978699092    8.78941309167758    5.34877026563741
H         5.15156668432246    8.63447251062735    4.34788308662315
C         3.48127754522247    9.20451185584802    5.54483047230986
H         2.83220227558247    9.38355025051455    4.70229328273337
C         3.02141845824584    9.34414266404556    6.83862257990049
H         1.99532835766216    9.60783527207336    7.03713060442357
C         3.89772545298757    9.15463771001820    7.90682990708146
C         9.54644900041840    6.94150106208994    8.73502273061091
H        10.24481977924325    7.75843086320203    8.91655147549177
H        10.12352009631864    6.02260488370570    8.67089737770180
H         8.86762912332447    6.87729000444570    9.58376343740482
C         3.37362267740231    9.29575488332492    9.29781876219596
H         3.99344763944750    8.75902530147292   10.01398747093401
H         2.35855025413607    8.90806563963359    9.34595394997523
H         3.33579838916426   10.34457154928003    9.59132207230155
C         6.06571733949049   10.41384578298287   10.31562747784380
C         8.51981102465663    9.51386280173124   10.05214330320115
C         6.40063877130774    7.62946005793523   10.21509435429948
C         7.02654410122429   11.80447268244488    7.09596888452566
C         5.69043046352052   12.29127055489081    7.57464294455798
H         5.27146895050031   11.56873253615733    8.26892764319901
H         5.00109547719988   12.42250049970811    6.74224612506931
H         5.79535794130028   13.23776201786994    8.10114241960563
C         7.27789872490187   13.87520165689403    5.77761212613606
H         6.26277978671590   14.10966127031725    6.08295200952331
H         7.34851021941915   13.96057825237998    4.68975600325849
C         8.27055222154934   14.85729050970577    6.41152019656749
H         8.01774734569004   15.87478734109906    6.11232134291868
H         8.19536020523446   14.78215073842818    7.51178476697637
C         9.98744479497991   13.19670850960255    6.29131138148762
H         9.98971407900642   13.03551831794420    7.38551434684633
H        10.98869477136773   12.99962310960507    5.90620908997322
C         8.98568639654921   12.23161685382075    5.64849636607780
H         8.97998269857876   12.40272612853267    4.56848208910138
H         9.27575852571107   11.19541072163123    5.82394793529261

