54
CSD_code = QEKJEX | q = 1 | S = 0 | Stoichiometry = C21H24N4O4Re(1+) | MND = 6
Re       12.08837962708425    6.43821139898520    9.37712630187549
O        10.72534868655524    5.61743711658662   12.03163585048624
O         9.70970607926663    8.40791396150479    9.18234967948435
O        13.98471996268143    8.44406827401068   10.76868409735584
O         6.88297017929283    2.99330565777039    6.45309244278735
N        13.02347392194745    6.75466955420614    7.41206319731160
N        13.62468095477564    4.87864178198570    9.22354209179937
N        10.86190893157910    5.02401903643113    8.13023385728570
H        10.59480553036702    5.50254834645126    7.27157596455186
N         9.56765685446542    3.27116866009703    7.30644791814636
C        12.90271900905710    7.81456583303628    6.60821167601688
C        13.28668770857814    7.75638816580132    5.26851369179265
H        13.16691209949827    8.62747434579127    4.64520049269831
C        13.81464060644553    6.58762327506028    4.75852765739640
H        14.10449685713066    6.51552042847659    3.72224060904937
C        13.99633418089312    5.51453944550645    5.61437913527052
H        14.44926296915867    4.61154784956558    5.24403565548718
C        13.60248213866526    5.62963685940351    6.94381350559785
C        13.89131306720638    4.57645759683832    7.93558433099600
C        14.49324978900462    3.37333760771176    7.58184358531378
H        14.66136262102710    3.11715596972886    6.55023929801615
C        14.88247917433326    2.49225680803698    8.57642423278351
H        15.33954361080377    1.54883479369809    8.32300309192275
C        14.70845849142838    2.86681030145541    9.89335071298120
H        15.04944560416519    2.23665040775924   10.69856683780632
C        14.07385644288980    4.07256980376031   10.19008624397443
C        12.35332398902567    9.09426828481710    7.14439329769904
H        11.26939139784448    9.11837111160885    7.03274388210653
H        12.76017585054337    9.93465653010323    6.58782430188566
H        12.59145713114866    9.21742281498497    8.19954843466151
C        13.91415569791848    4.46486144187949   11.62192174618841
H        13.81402197728845    5.54346416354703   11.73081147738418
H        14.77799907828330    4.12927120305429   12.19099599400526
H        13.03407850406471    3.99123109029659   12.05642318225668
C        11.25326508940650    5.91761407250628   11.06166389353337
C        10.61594202718427    7.71582388376606    9.25745249230942
C        13.26820209608053    7.70615809709074   10.27346301715311
C        10.33485000365599    3.84796388132348    8.24758036981946
C        10.63817298436723    3.05432954131321    9.48375428063103
H        11.10393507128350    2.10273971698623    9.23269567677294
H         9.72924614939165    2.86675300394978   10.05187953995318
H        11.31647663088101    3.62019887956996   10.11541500183008
C         8.84629877305968    2.02108097586291    7.48924304863513
H         9.18362799147850    1.48238795221752    8.36889108412049
H         9.01834938830581    1.39841245932520    6.60503131947036
C         7.34362399965579    2.32282949465373    7.59919082109899
H         6.77239326370211    1.39663397638512    7.66424444728797
H         7.15636642203431    2.93133398256838    8.49773314044238
C         7.57631451848300    4.19612297248759    6.24916495209353
H         7.40522835136252    4.88702708314218    7.09012148090324
H         7.17474558130940    4.63323426945486    5.33437603397112
C         9.08341016622027    3.93386935766968    6.10531650187755
H         9.25001358700816    3.26027450472027    5.25831837322060
H         9.60543918072710    4.86871197505870    5.90483005049919

