54
CSD_code = QEKKEX | q = 0 | S = 0 | Stoichiometry = C14H31N5O3Pt | MND = 6
C         2.21791329021539   24.04181338985613   11.94310766491585
C         2.57694037006208   22.70570705581910   12.62147189684284
C         3.77824867578309   23.00971709155276   13.52573034697264
H         4.61165358960943   23.39730915996416   12.94266788146034
H         4.09959563188086   22.10386494099458   14.03540968252780
H         3.50758082717226   23.75263668988987   14.27230242013569
C         1.38481621089436   22.25942536718145   13.47010783769542
H         1.66813626200440   21.42366368020937   14.10548734151485
H         0.56082637767285   21.94992934598566   12.83149705126169
H         1.04473980078343   23.07979230535685   14.09641975877681
C         2.93291711078936   21.60546498201704   11.61811685934386
H         3.92756359040261   21.74700299899331   11.19821916574537
H         2.20863552158933   21.56403132685351   10.80689372713796
H         2.92944150056068   20.64336098534491   12.12648641263248
C         3.83420591284949   25.06881856491675    6.95179021584202
C         4.15722669972071   23.92734586373436    5.96667621623876
C         5.39726748340490   24.32873490038780    5.16633265536187
H         5.56454339462857   23.62679935325965    4.35259034790459
H         6.27404083227167   24.33617156616400    5.81012296537441
H         5.26849311822739   25.32583426753455    4.75398144580506
C         2.93556699021150   23.82775048746446    5.04444270836483
H         3.09894701785223   23.05967055834002    4.29161162453602
H         2.76299301604929   24.77696022982596    4.54174345621485
H         2.04873880198061   23.56583298670354    5.61860142815032
C         4.39656047734755   22.58241193174501    6.65381869364133
H         5.14235407709095   22.67653515017153    7.44065281926015
H         4.76549905234211   21.86921306539133    5.91914288738772
H         3.47944187054509   22.17495195009128    7.07459664014492
C         0.64601677113600   25.21433685816714    8.79218657934070
H        -0.20298711840865   25.77800080785167    9.18035312865496
H         0.73117842213059   25.36020610786903    7.71163536850725
C         0.52026474038994   23.78863859018756    9.09142135262598
C        -0.51098232736048   23.41069693294537   10.13509672361027
H        -1.50274899016106   23.68537967198970    9.77980031539790
H        -0.32115786622097   23.94398448637383   11.06324121241261
H        -0.48398856123725   22.33883949096160   10.31687054932996
C         4.35108575279091   26.55579276844026   10.23532766151024
N         2.77311309015351   24.29045330511113   10.77899932636508
H         3.37899841898727   23.56557785006754   10.41244689125537
N         3.35939594722246   24.72258155698888    8.12743049975126
H         3.04825087532066   23.75619658436416    8.21204048378575
N         2.48610568294385   27.61668311958614    8.24920898538177
H         1.59618262676451   27.85689047072561    7.82141507942870
H         3.13595210269457   27.23656257073270    7.49300783373369
H         2.91423028124196   28.45946338476167    8.62466517763858
N         1.60717081156686   27.07515804529189   11.13066699436053
H         1.43484430991135   26.27689393036390   11.81061592941924
H         0.71712505445378   27.51647186674375   10.91831687133980
H         2.21079224962823   27.75018944456561   11.59371661370634
N         5.29347237780648   27.03267928514505   10.68030553233396
O         1.46405037664370   24.83920351040562   12.52560534445556
O         3.99899831945817   26.24536403949330    6.59040871589462
O         1.19899627612721   22.92226264363182    8.54577476874141
Pt        2.55145287206925   25.90714248147938    9.56061990982801

