92
CSD_code = QEKLEA | q = 0 | S = 0 | Stoichiometry = C41H47ClN2Pd | MND = 4
C         3.03578204077194    6.73064611922637   10.02933404808479
C         3.40797888164429    5.53956310795285    9.31067957422138
C         3.32487469703270    4.28570150721344   10.15507293198549
H         3.60460750423691    3.38461273284241    9.60839690289185
C         4.20541107298094    4.56783749913697   11.34839191302483
C         5.27355602936450    3.79724351475551   11.76281016995162
H         5.54759154014347    2.90602193814357   11.21747095327892
C         5.98742914103875    4.18339551022074   12.88806418079291
H         6.82512689031313    3.58811338185492   13.21799305302337
C         5.63127504136756    5.32219482395802   13.58948551468979
H         6.19141704504043    5.61186852289144   14.46544215118685
C         4.55714281087227    6.09693074574251   13.17591778142269
H         4.27737619870541    6.98547188381052   13.72269104373595
C         3.84999455659283    5.71910131128785   12.05175465972957
C         2.66237084019345    6.44888281108992   11.46947030426456
H         2.38726363663339    7.34560496986276   12.02554182411152
C         1.55611052675452    5.42195703309946   11.38427405871155
C         0.29350254548212    5.54825003205067   11.92789434158898
H         0.02412721515939    6.43667682194349   12.47925821935793
C        -0.62228198618499    4.52026778838623   11.75524159959680
H        -1.61281819492965    4.61288587819670   12.17426027323346
C        -0.27392778640688    3.38016637986101   11.05213060265490
H        -0.99389774613955    2.58624720857417   10.92319397949898
C         0.99734700593881    3.24657430772261   10.51256491317936
H         1.27152297767926    2.35514213268266    9.96815586302445
C         1.90916632593273    4.26973199244737   10.68020859732229
C         2.74181780353278    9.06335487508050   10.06610487451548
C         3.78197751531151    9.93901047140893   10.41279089423368
C         3.45315923011873   11.11839939458565   11.06472288202843
H         4.23176343993326   11.80014881969834   11.36592031465524
C         2.13438600556102   11.43986011835701   11.32370419853238
H         1.89510597556747   12.36335888237321   11.82951949854246
C         1.11605493917207   10.59768471669686   10.91428658242805
H         0.09354639665666   10.88875900323456   11.09064498847224
C         1.39483530710747    9.39306636401328   10.28725887819921
C         4.18806183603279    4.63850115135892    7.24860580011028
C         5.54107434979182    4.58135466705280    6.88609437026564
C         5.94198619565047    3.57533030077331    6.02152607196975
H         6.97879550324660    3.48995681345353    5.73884817748847
C         5.02185632108255    2.68564981451507    5.49957517055118
H         5.34883259301138    1.90868056013264    4.82437243866760
C         3.67797588911932    2.80432340467128    5.80752452393596
H         2.97383638512019    2.12916346416411    5.34871488693571
C         3.23221520452676    3.77756083612630    6.68687707827325
C         5.21138416617195    9.59310580840849   10.05401532268388
H         5.19118501512467    8.98123793954741    9.12724028142873
C         6.05830932175255   10.83103063599005    9.76007625421381
H         5.54161853906674   11.49034211082031    9.06725802370366
H         6.99959565993579   10.52826444777500    9.30710800232182
H         6.28756899578553   11.38173348648146   10.66962346071900
C         5.86319043195471    8.75932965651645   11.16059450184462
H         5.84775837454411    9.30381947555817   12.10336055821402
H         6.89808735960270    8.54227643001451   10.90559819942808
H         5.34395198916219    7.81419825427698   11.30027208032569
C         0.30239374039444    8.48122469930603    9.76770334114726
H         0.59367860773850    7.44132644458774    9.95256016358749
C         0.16042006691515    8.66363685883356    8.25069714652615
H        -0.06364801779542    9.70186797824505    8.01562097950322
H        -0.64727915935216    8.03861590922331    7.87602465019945
H         1.08681776317071    8.38130626004370    7.72810188708748
C        -1.04839564390657    8.70207527808713   10.44703888093379
H        -0.94677322164580    8.70272734656764   11.53025716094861
H        -1.72895090090579    7.90013378830595   10.16862982605871
H        -1.49440083892103    9.64334258224843   10.13546588346892
C         6.50301482301937    5.60446944966032    7.44973167259188
H         5.93416066834832    6.54018299105952    7.63483494180629
C         7.07701889576330    5.12097759076352    8.78481051340238
H         6.28910304885677    4.96102721714013    9.51854264417034
H         7.76995242907515    5.85740676162623    9.18662702532125
H         7.61314165970948    4.18351642338204    8.64572689436055
C         7.62505146790688    5.95285115023226    6.47445119815384
H         8.18447491711653    6.80694525774402    6.85064948756201
H         7.20469984222842    6.21731253978407    5.50750747687003
H         8.31964169203661    5.12515337448726    6.35000928161849
C         1.76341983595077    4.01974785811952    6.96610442162005
H         1.63493802895547    4.24737198398573    8.03061426885011
C         1.29880949269534    5.24415439100907    6.16586044098791
H         1.87256834255559    6.14294591864328    6.44114871412630
H         0.24445596880040    5.43844826382102    6.35407270295470
H         1.44097113777439    5.07299985551032    5.10112799761956
C         0.87390750262125    2.81867083803262    6.65114603343187
H         0.81037339835636    2.64913986797263    5.57928356541112
H        -0.13229144838594    3.00477857969553    7.02192486375413
H         1.25305077686343    1.91706380294994    7.12837836948666
C         3.40881462890412    9.76485160456918    7.01419957329578
H         2.75175799944471    9.85945573814040    6.14361139820595
H         4.39537361673353   10.15035305385008    6.73301815551653
H         3.00595075288779   10.36842207696582    7.83431200385741
Cl        4.24227024562155    7.48931662858369    5.39908256795284
N         3.07122106197269    7.86578776683918    9.41484008292422
N         3.79106669792043    5.67036493052459    8.09604557093565
Pd        3.61124056668942    7.77403508145792    7.49790044457025

