131
CSD_code = QEKPAX | q = 0 | S = 0 | Stoichiometry = C68H56Cl2P4Ru | MND = 6
Ru        4.75916218651115   12.67252145858915   20.91809863888915
Cl        3.07704211807231   13.25995659916338   22.57918983491807
Cl        6.97350382233965   12.16254147709025   20.04028082727269
P         3.85018443651664   14.25711746655199   19.44249249961099
P         5.66702813125478   14.61103839299420   21.87689871814809
P         5.49574580915329   10.98848900464642   22.37509432044884
P         3.88688035500155   10.81321190155362   19.77922010263660
C         4.06280172093227   15.98057495031029   20.13532589892940
C         4.40147602784682   15.93897131380876   21.61805845560670
C         5.84665436074466    9.51592810021822   21.30679023769918
C         4.60480919956856    9.23350020291981   20.47452358786808
C         4.44716497740567   14.48741245578079   17.72616094405310
C         5.45524451078433   13.63696211793841   17.33798325089523
C         6.05356843540571   13.72318409246359   16.07516147078386
C         5.63273467482339   14.67155995926977   15.19008099888003
C         4.59299566559788   15.56182798911970   15.53403289001083
C         3.97871508259448   15.47934393303472   16.81502097107233
C         2.93255079382872   16.37955243928954   17.09855359695268
C         2.52446256820412   17.31284952201143   16.18619071978263
C         3.14305082222237   17.40143610263910   14.93230743781539
C         4.15346876971223   16.53876827006388   14.61620840377547
C         2.04261113469184   14.18821131344157   19.18519384181287
C         1.17087651645068   14.60881328909012   20.18616576398326
C        -0.19634810208396   14.52256069395862   19.99825916353663
C        -0.70822017696454   14.00878702177249   18.81843331240351
C         0.15420557697516   13.58827954228874   17.81992861969286
C         1.52143290172359   13.67998993613479   17.99941293642796
C         6.10822334837528   14.82952536240412   23.62679195034863
C         5.22138589330615   15.37181956916328   24.52628198967735
C         5.62316288185982   15.66796032463184   25.83517929002717
C         6.90999005035309   15.44001131504561   26.23448535136367
C         7.84168526618100   14.85344660515104   25.35382166813378
C         7.42924398183301   14.50684573061177   24.04173583810444
C         8.35158672863849   13.87987635592257   23.18259986485609
C         9.63886081551650   13.65569051887915   23.58069460915865
C        10.05824373973422   14.03212870091734   24.86516846421961
C         9.17525893807039   14.60263917068350   25.73742867881442
C         7.00675694123155   15.57770815683002   21.07278120528590
C         7.62677365434585   16.62509192020121   21.75003442416198
C         8.54730245926332   17.42461137546376   21.10037942672077
C         8.85020961845907   17.20341720442787   19.76599007449710
C         8.22155248917978   16.17892242588691   19.08214363695324
C         7.30373763468128   15.37287786562984   19.73292341863831
C         6.97555638187078   11.06455318753895   23.42823877493645
C         8.18475440977644   10.57144328650939   22.99870555526530
C         9.27956492430871   10.50523819718311   23.87003477354639
C         9.15806351621712   10.91171856601265   25.16896493630366
C         7.94562672743847   11.45508872026494   25.64056339886489
C         6.84726660030725   11.57096260138792   24.75055770809157
C         5.65479231403876   12.15746218510276   25.21537038957409
C         5.53219499252801   12.55879985382713   26.51526623161284
C         6.60495094650095   12.40917527948458   27.40652207951168
C         7.79015591035544   11.88521319401564   26.97445935593355
C         4.34989231881639   10.05969037584635   23.47053913939196
C         2.98295876894920   10.09634298885525   23.23429149206084
C         2.11732644544092    9.30947706549831   23.97392673972261
C         2.61217574732573    8.47201549113447   24.95691637629229
C         3.97796920708763    8.41580743955477   25.18646900826939
C         4.84422585050402    9.19589244402604   24.44497895314243
C         2.10171557160407   10.40562813141140   19.73934000031174
C         1.28648317219546   11.28354984315694   20.41373605685621
C        -0.09537216657987   11.08336280235609   20.51619879577372
C        -0.66649943439500    9.99222918513872   19.93047370086825
C         0.12384063710163    9.06528187753940   19.21767787548341
C         1.52919969775443    9.26129677030247   19.10981307537995
C         2.26785942430827    8.31320797658925   18.37447249209789
C         1.66573788960005    7.23271682044938   17.79138909622945
C         0.28381696558491    7.03636860541670   17.91139981117886
C        -0.46769511729811    7.93891183869667   18.60831489519001
C         4.32659200162200   10.66855290429447   18.01178877123326
C         3.38552651860341   10.96246465490627   17.02987272586813
C         3.72737343837316   10.89655283365861   15.69250047500809
C         5.01002232893292   10.53111836042745   15.31960617769029
C         5.94959304302313   10.23020939626974   16.29145497352474
C         5.61470755621848   10.30169875905448   17.63116961123556
H         4.88511321194876   16.43759646459373   19.57175028841394
H         3.15847344306165   16.57231267841990   19.97290565134570
H         3.50882065567049   15.70451369411840   22.20025735784410
H         4.81462577616413   16.89549227761102   21.95737313866314
H         6.69276426255640    9.73778449016904   20.65440074995982
H         6.09729368545785    8.66320621457272   21.94780948195391
H         3.82119241377028    8.79100958991532   21.10128194480968
H         4.84227470565093    8.53394284223265   19.66916503530733
H         5.81035945575352   12.88319081315283   18.02651944209451
H         6.84848431304571   13.03814114120943   15.82243483269816
H         6.08587647005718   14.76028537758247   14.21268950298271
H         2.42703876178597   16.31641276332800   18.04768878183894
H         1.71686790851525   17.98755907546658   16.43027421427046
H         2.81275535020389   18.14587463306236   14.22297749171981
H         4.63573952272224   16.58733551589776   13.65000348334575
H         1.56102639733334   14.98121342583564   21.12171133375602
H        -0.86474643987234   14.85554629791560   20.77930075630101
H        -1.77662383504595   13.93855710641347   18.67534443842579
H        -0.23973261785752   13.19304881618084   16.89444853814177
H         2.19454570776145   13.38347115405096   17.20800404964935
H         4.20172764684984   15.57391978477588   24.23748982985881
H         4.90712291864927   16.10191922731176   26.51812665390004
H         7.23273506970836   15.70152230333920   27.23228748445633
H         8.02282106243209   13.56329714700946   22.20009359266234
H        10.33915376482945   13.18438180361095   22.90760344178954
H        11.08168810217995   13.85434573916699   25.16219501989592
H         9.48379751488874   14.87475512699704   26.73702904461530
H         7.39311852181321   16.81889899485284   22.78771614013844
H         9.02821729488732   18.22920822535449   21.63826020462450
H         9.57101527904628   17.83218665777919   19.26381850951856
H         8.44031844446759   16.00183763045796   18.03901944973476
H         6.82745198908515   14.56717176583699   19.19520643097270
H         8.30894288380352   10.23174536193834   21.98232646967269
H        10.21538644766356   10.10539775235753   23.50699367879461
H         9.98989268580329   10.82734245352161   25.85386239291686
H         4.83442446839130   12.29922088502179   24.52215342146995
H         4.60791354527146   12.99605074214595   26.86182333537120
H         6.48923899929307   12.72449509468670   28.43338398158564
H         8.62966252195528   11.78791204291015   27.64841310883943
H         2.58682420358707   10.75672551052911   22.47777203916073
H         1.05609255269786    9.35484602941771   23.77633555151849
H         1.94012131365179    7.86033509740477   25.54110310531442
H         4.37239248685517    7.75590913991126   25.94602180163931
H         5.90761712584392    9.13064487177637   24.62869860965153
H         1.71866253921224   12.15203817909645   20.89064111261175
H        -0.69045160978540   11.79675233716818   21.06571028673716
H        -1.73058598305081    9.81581861780054   20.00183659938385
H         3.32855810572934    8.45417070623642   18.25015073616152
H         2.25736502934822    6.52398843047065   17.23040421202964
H        -0.17780390007870    6.17686336228228   17.44817033411784
H        -1.53622758592378    7.80674481752793   18.70453565956638
H         2.37649413814825   11.21575736867924   17.32142484173024
H         2.98827752617950   11.12566528172327   14.93806692169218
H         5.27498340079197   10.47867427945410   14.27368983615678
H         6.95095377817306    9.94128053586009   16.00608191406004
H         6.36259522044433   10.09468853994995   18.38199295279614

