130
CSD_code = QEKPIF | q = 1 | S = 0 | Stoichiometry = C68H56ClP4Ru(1+) | MND = 5
Ru       -1.60422033794941   15.23419508366520    9.49249715215504
P        -2.48152812722947   17.42851300560760    9.47586941219208
P        -2.97683275753410   14.96061480015348   11.33360692902190
P        -0.85409912605586   13.04304284834176    9.27258198155822
P         0.35446826482539   15.53837226440696   10.67332264956232
Cl       -1.12476634766006   15.51727250753653    7.21063014027013
C         0.10434053636055   12.73646875317050   10.81581300718974
C         1.11880259313091   13.86087412369600   10.97868092358445
C        -3.70180124485845   17.53954050379846   10.87950998105010
C        -3.32483384003415   16.63104241219781   12.03923449624913
C        -2.01308194354280   11.64551184926298    9.16310066247672
C        -2.11300180058403   10.70077920675356   10.15890090729349
C        -3.06968739432551    9.67832289281637   10.08419915614747
C        -3.93626371246278    9.61084813146630    9.02958740892203
C        -3.85121130497311   10.53964730624597    7.97197326485241
C        -2.86488013428162   11.55939146593835    8.02549526008879
C        -2.73740169681729   12.43364268040926    6.92971752245287
C        -3.56353312927613   12.33015516390490    5.84520012524853
C        -4.56325771497956   11.34589618122099    5.80890318239106
C        -4.70087620886019   10.46883536939897    6.84800315034859
C         0.42524973348446   12.63811090360572    8.04240523164996
C         0.51239218391002   11.36372391272793    7.48928127186247
C         1.52933641762330   11.06960894489571    6.59966190686656
C         2.46217196348539   12.03605102275073    6.25921272423729
C         2.38025959941920   13.30345883577439    6.81192452135348
C         1.36475826556673   13.60565454024679    7.70003806465895
C         1.70383373667530   16.52142516821969    9.93805003500474
C         1.40988042912023   17.15672197281076    8.75391514445558
C         2.35768311332453   17.93330425560374    8.07822016985319
C         3.61292208724479   18.06953413980827    8.59634734779953
C         3.95965753354868   17.45060865329254    9.81649214934898
C         2.99841934750286   16.67077362284759   10.51890249759434
C         3.38131423992332   16.10610794356824   11.75036923385568
C         4.64200957625162   16.27762591424598   12.25272436825603
C         5.59419272315746   17.02489875077157   11.54699670506718
C         5.25417588915869   17.60229185194515   10.35667919487896
C         0.27589187190710   16.25056350065964   12.34786595550138
C         0.57546266746422   17.59790596718526   12.53386143528948
C         0.56271266938290   18.14281641228083   13.80432987006838
C         0.26159031208992   17.34930626585793   14.90007104599257
C        -0.03384826599582   16.00776778853707   14.72026392366945
C        -0.03636798204016   15.46006093331577   13.44941111600281
C        -1.45426035171874   18.91938160861110    9.69392283816246
C        -1.30023633271521   19.46690946813187   10.94691233656758
C        -0.54694196542864   20.63212642195028   11.14100330851041
C         0.05654118462159   21.24772042618583   10.08182192823100
C        -0.06145510499361   20.71523171274904    8.78176387471121
C        -0.81562592791790   19.52848505574996    8.57655668806723
C        -0.90240054810082   19.00989904996076    7.27012708778134
C        -0.29572118317195   19.63654045258613    6.21760647597158
C         0.43422414372762   20.81751927480910    6.41926292413061
C         0.55312263252432   21.33986174226576    7.67601459619544
C        -3.64521100938935   17.97808056258704    8.17546489334833
C        -4.15872121000608   19.27031227357404    8.27092780061193
C        -5.09141846444827   19.71385461615456    7.35428009247909
C        -5.52486355680608   18.87523735604924    6.33896510895823
C        -5.01325196041209   17.59387864097879    6.23804707937285
C        -4.07536355583589   17.14482787474745    7.15153587746217
C        -4.52489986646786   14.54960746005171   10.45211167129820
C        -4.35854919874155   14.40999160814706    9.09116376607795
C        -5.42215239587451   14.10675763951289    8.23711815194983
C        -6.67090871391468   13.93245570578555    8.76320257535904
C        -6.89906137407017   14.06391615314481   10.14891568045443
C        -5.81896037848036   14.38015802800672   11.02084476882867
C        -6.09216670017469   14.51292235570534   12.39651624640874
C        -7.35657733669653   14.33908610621510   12.88756549624289
C        -8.41866097995041   14.02532767812682   12.02788531356413
C        -8.19166125604865   13.89088577508356   10.68761785922953
C        -3.04643049843831   13.84340388209078   12.76652862398997
C        -3.35544794137322   12.51043640329906   12.50900206541155
C        -3.43745870666372   11.60061503773343   13.54565394126365
C        -3.21392157145520   12.01528456247627   14.84887298825380
C        -2.91941261521293   13.34379272816517   15.11097723834600
C        -2.83440545330538   14.25961958073709   14.07752891587085
H        -0.60406183130923   12.73684913396706   11.65237293562508
H         0.61147649932369   11.76748469633499   10.76304038467050
H         1.92174195696729   13.75097607096015   10.24155009422383
H         1.56296734797023   13.82303499892911   11.97577566654608
H        -3.81941250095779   18.57875999504777   11.19574236364420
H        -4.66145893523146   17.20755908873231   10.46198965501353
H        -4.13041559519522   16.58920219896862   12.77729853847320
H        -2.40500799884710   16.97201977022256   12.52805324402803
H        -1.45941068387560   10.72821288353179   11.01699646325230
H        -3.11642821004815    8.94773444142059   10.87784910534851
H        -4.68633381600739    8.83539574396383    8.98220839583695
H        -1.95049266079399   13.17903099605992    6.94236392134301
H        -3.44417730801036   13.00195175295554    5.00789313966640
H        -5.21193633971659   11.27923339223225    4.94851992222438
H        -5.45361954494682    9.69486912688540    6.81904920976826
H        -0.21409113254903   10.60650192130948    7.74884624433230
H         1.59147476645416   10.08175175692832    6.16850689522647
H         3.24991451809260   11.80181958664505    5.55954874830275
H         3.10221688223000   14.06178378093542    6.54775482087393
H         1.28516525432532   14.60454587911633    8.11178931999214
H         0.42479979599129   17.04421876582508    8.32537997949672
H         2.08309965916668   18.41066740011748    7.15034581885546
H         4.36164190307575   18.65530094787539    8.08375750536174
H         2.65775306074544   15.54647712517968   12.32053783606446
H         4.90835553164028   15.83685206411641   13.20162276571732
H         6.58671151170141   17.14578062190823   11.95270271949021
H         5.97270175258148   18.19155660008443    9.80631761217165
H         0.83838778777091   18.20703719005322   11.68120652339799
H         0.80393301188006   19.18591119464663   13.94181305228724
H         0.26611300334997   17.77278103661585   15.89276087712353
H        -0.25538644736043   15.38280687504433   15.57277820533126
H        -0.26763483084169   14.41242657884262   13.31529982543752
H        -1.75821202919478   19.00815347435704   11.81049262833840
H        -0.45848575422334   21.03937570939075   12.13715129556778
H         0.63081663726573   22.15122736070920   10.22369949864874
H        -1.44589094224991   18.09050041110712    7.10442919818463
H        -0.37474193275020   19.22117086093821    5.22420788671274
H         0.90283737856821   21.30461396380519    5.57746460304447
H         1.11873733069815   22.24433323909087    7.84538080270928
H        -3.81478398568299   19.93110441044480    9.05484294623738
H        -5.48053260838449   20.71805043223810    7.42998652886929
H        -6.25354635450022   19.22540458554315    5.62396673583384
H        -5.33903201509567   16.94149822571662    5.44162353237290
H        -3.65454677970158   16.15612698346050    7.03826022103484
H        -3.34678448428041   14.52025573806455    8.65723967254326
H        -5.24947354119200   14.00434228613974    7.17690928467051
H        -7.50564414735577   13.69277784721484    8.12159938147534
H        -5.28593241063529   14.74340153848055   13.07457330965186
H        -7.54230467789203   14.44331929460209   13.94585640901377
H        -9.41010869061109   13.89160190936741   12.43209294413887
H        -9.00037558686071   13.65022868535132   10.01359874651801
H        -3.54897730526552   12.20121846124533   11.49034142871821
H        -3.68442914685315   10.57059886962153   13.33764824100644
H        -3.27896020026293   11.30716552805764   15.66051378614158
H        -2.76249647033768   13.67048475361702   16.12813578941449
H        -2.61639317882052   15.29509672359921   14.29194390071911

