35
CSD_code = QEKRIK | q = 0 | S = 0 | Stoichiometry = C12H10N4O6P2Pt | MND = 4
Pt        6.19339120171338   14.22934466943623   13.22690618133936
P         6.79555030796903   15.23474860381033    6.72391963160425
P         5.67376321551100    8.45807254761980   10.01932771383954
O         6.75668699348121   16.78333378532927    6.32606816023453
H         7.43415495982217   17.36074892136234    6.67799904571786
O         8.30030830502577   14.74396375188643    6.44366179615406
H         9.02476814709132   15.23167281633929    6.83569265191988
O         5.82663408889053   14.43710158635104    6.00192511625675
O         4.97757988822350    7.39805853280116   10.97985461445297
H         4.04896109447901    7.56679983048562   11.14597928217020
O         4.55084649247316    8.77837256504024    8.91140335739080
H         4.90667036885761    8.62023162888435    8.03626480632162
O         6.94248648248253    8.00694591607786    9.46458712282046
N         6.19097311190332   14.74552487633253   11.24466051603869
N         6.21083584112728   17.18686272539049   14.10232854258556
N         6.13282004519026   12.36032166190683   12.38264874424234
N         6.31723536364028   13.07760146064342   16.08642063786600
C         6.28815417546237   15.97578932558805   10.74916697946374
H         6.19876334894508   16.78733896292734   11.45978370452479
C         6.48630513964091   16.22690260023957    9.40163484189461
H         6.53497963051500   17.24425286533871    9.04678220412182
C         6.60539177347934   15.14822123918600    8.53815771207243
C         6.48677098503845   13.86753950131798    9.04966097119288
H         6.56884872280512   13.03606492299079    8.36856718524197
C         6.26805279577519   13.68938738400477   10.41083023690251
C         6.19943572130227   16.05724838048675   13.88394273659937
C         6.11038390678026   12.37237785482742   11.03652293471629
C         5.93022539177276   11.20139657219452   10.30669668766055
H         5.89163529096295   11.21397165027168    9.22962651654858
C         5.77788243661503   10.00268104379849   10.97944284216611
C         5.83472985848695    9.99965200477937   12.36557800905018
H         5.74843297371051    9.07698805778752   12.91764850295685
C         6.00599574124924   11.20367588822955   13.02680500057487
H         6.04968098735133   11.24864814376978   14.10743538421092
C         6.28146521243798   13.60215772231850   15.06326962916656

