73
CSD_code = QEKSEH | q = 0 | S = 0 | Stoichiometry = C37H30ClIrN2P2 | MND = 4
Cl        8.89139192020740    4.51532442458269    5.40529705478692
Ir        8.25555561939582    2.95308130542151    6.96329704043698
N         7.86540559382084    1.81583221523377    9.64727651797610
N         7.15007668561293    0.40961218303442    7.93939299354933
P         9.39122683608312    3.83892170912171    8.67442757908161
P         6.87930564756224    1.78253958866527    5.63599847064646
C         7.71157566408111    1.61397951348423    8.29471578073870
C         7.40755903191238    0.94688951787412   10.62679542147284
C         7.40174776084463    1.25591477733188   11.97443460791196
C         7.00541786293305    0.29920372001287   12.91425811046243
C         6.62734575616716   -0.95862104669633   12.53505205946259
C         6.58841542266962   -1.30399562074433   11.16929863204645
C         6.19804496281113   -2.58091975823964   10.71881246102537
C         6.18716582700591   -2.86303191719934    9.38126222896084
C         6.51839484177692   -1.89369470275714    8.42933837198666
C         6.87731173785831   -0.61961589290531    8.82828480575720
C         6.95625230725601   -0.32980021021727   10.21216577396266
C         8.49693469438652    3.03679715822874   10.09890817456161
C         6.87612335062208    0.15801966393341    6.54142143877990
C        11.11557280782722    3.34831860068797    8.98976601077118
C        12.15593641122465    4.23814324443281    8.74056307458344
C        13.46837978551442    3.83299134535424    8.90049245890770
C        13.75314893220895    2.53615119735975    9.29624743327761
C        12.72155957685076    1.63744196932243    9.51687663964487
C        11.40827441047057    2.03687553819807    9.35462589503827
C         9.39782287563255    5.57289819862319    9.23173617860914
C         8.86748600708364    6.54482342709934    8.39277564943653
C         8.83991930371294    7.86838377416152    8.79870046414401
C         9.33660047130729    8.22154840653311   10.04180187438952
C         9.86794660967662    7.25310613338421   10.88096021915826
C         9.90183242597131    5.93144749815680   10.47964631168462
C         7.02675745359977    1.27716436480488    3.89302189720921
C         6.78344948010802   -0.00326095660196    3.40476349804137
C         6.91518540050736   -0.26132998064730    2.05170836266449
C         7.29026976227370    0.74814393468109    1.18014543194697
C         7.54052626077095    2.02261016925086    1.66237403853542
C         7.41121899505265    2.28650983380267    3.01315244157779
C         5.11302872843635    2.23895255042073    5.73248410302544
C         4.12351773160849    1.60212394644051    4.99190895380939
C         2.80240977593509    1.98597438255176    5.13447115678653
C         2.46234967885383    3.00446157496019    6.01118331447398
C         3.44642321916677    3.64632779189719    6.74579033630969
C         4.76813500419325    3.26597802962590    6.60409518919541
H         7.69060233161723    2.23029025221150   12.33115186871645
H         7.01506116409303    0.57021230833172   13.95982808999121
H         6.34871632020784   -1.69916454527802   13.26905453418285
H         5.91588303952649   -3.32732617372052   11.44553253082729
H         5.90822063391398   -3.84826776563760    9.03731499011353
H         6.49256644565380   -2.17309074790010    7.38940659623124
H         9.18589931986340    2.81235355095008   10.92064279112522
H         7.73792921026615    3.74747232529256   10.45551818182578
H         7.66368878190562   -0.47493215464766    6.10908906071275
H         5.90685996187035   -0.34465165032551    6.44688123531625
H        11.92935359430912    5.24650931065891    8.42276703515534
H        14.27246901042395    4.52935988995614    8.71268296901408
H        14.77870742020591    2.22234300754837    9.42267153424186
H        12.94265190552423    0.62141277856925    9.81063770239498
H        10.60488954685938    1.32837632697309    9.50610375597485
H         8.49555870205518    6.25359592248956    7.42000969745311
H         8.43276817774696    8.62419950000939    8.14352207004056
H         9.31588689891994    9.25376406159413   10.35984856067364
H        10.25947518328955    7.53283933139762   11.84850669071361
H        10.32855806551454    5.17522253042194   11.12509689309229
H         6.49035620751986   -0.80180407420674    4.07183112509857
H         6.72427126461154   -1.25636460236081    1.67523936055429
H         7.39193819284252    0.53724603228418    0.12566023924965
H         7.84172350156901    2.80867790384890    0.98601057004491
H         7.62550225334381    3.27068476046969    3.40746927418017
H         4.38745253871597    0.81592512408576    4.29826904340039
H         2.03425812121771    1.49194379472918    4.55711087113601
H         1.42905178138073    3.30155805959299    6.11651691371972
H         3.18185749788001    4.44570655830292    7.42283975166279
H         5.55924029632320    3.76238678150811    7.15775760632797

