68
CSD_code = QEKVEH | q = 1 | S = 0 | Stoichiometry = C35H25Cl2N4OOs(1+) | MND = 6
Os       13.99977179887817   10.23100090442043   10.57487719309386
Cl       12.26262131393749   11.06206361230955   11.76016339387705
Cl       12.90165902212490    8.28304004277744   10.10098888914188
O        17.40485177798926   10.52020514529331   13.14077463745642
N        15.15662051621015   11.58316438573144   10.81029478383084
N        14.99914082983916    9.18398057251603   12.07939825544071
N        15.38023368358002    9.29740400046261    9.49160906469932
N        13.45313011961568   10.86458359688498    8.67557432532084
C        16.22879444554398   12.19945246051105   10.99328189228512
C        18.26531962254961   11.23534428204496   12.65832160741392
C        16.01855051103912    8.43681965072660   11.58820221641276
C        16.77570803812703    7.63420356198796   12.43241179847050
C        16.48486389129302    7.59761215654021   13.78732441367695
C        15.44008843261692    8.36647692712344   14.26730512359986
C        14.72598448242353    9.14874447477267   13.37143562928822
C        16.24171385601360    8.50406238113894   10.13103228281283
C        17.19681116235542    7.81110417822882    9.38886496204751
C        17.19403221030547    7.95437066726863    8.00866083972310
C        16.25227804098961    8.75413524900753    7.37628720159277
C        15.32788753124664    9.43608064294634    8.16495037891865
C        14.22453541015427   10.30318890007461    7.70711142225398
C        13.94222812586005   10.52360380886609    6.36344687690025
C        12.85773000493231   11.31140496660434    6.00849573849141
C        12.07992965973969   11.86838956022296    7.01055100384831
C        12.41969615288177   11.61886937186334    8.33188144336139
C        17.47359336292115   11.68289079614827   10.35066748974489
C        18.49377138613612   11.20842690885817   11.17674697559098
C        19.63147432415970   10.65468349145680   10.60534957135746
C        19.75505647773529   10.58783319362068    9.22719531006043
C        18.74723083156313   11.07588389453630    8.41173330613996
C        17.60248939990983   11.61859399204628    8.97094089106845
C        16.33806794965109   13.36005958486802   11.88907696477553
C        17.40692763044912   14.24751366081181   11.78891748401346
C        17.51802793379784   15.29224827245858   12.68722000107097
C        16.57050367780566   15.45733894375528   13.68438889353335
C        15.49415599900287   14.58712243000576   13.77217203776886
C        15.37005351545879   13.54302196994656   12.87734643883362
C        19.06496090753405   12.17715617106745   13.45347673937780
C        18.70561327308661   12.37285096068633   14.78958567921687
C        19.38679706615235   13.28425190207074   15.56983410249598
C        20.44023489668331   14.00540650809696   15.02854736966044
C        20.80884057719446   13.81342352909547   13.70517850781181
C        20.12470846391572   12.91043002405177   12.91538178204205
H        17.58729925494517    7.04562427930961   12.03692586627879
H        17.06925805275662    6.98045651750771   14.45182743588542
H        15.18082642031781    8.37147752612384   15.31328448112528
H        13.90151335528387    9.76941007624274   13.69916737622482
H        17.91672291302435    7.16782487864692    9.86573236876822
H        17.92177635812463    7.42077143823959    7.41705341321698
H        16.24145811828547    8.83400858404536    6.30231432029292
H        14.55563615084211   10.07274413189142    5.60066364432164
H        12.62420813327517   11.47885182557230    4.96876795237837
H        11.22304842379594   12.48005893185738    6.78069594093288
H        11.84187022999121   12.03024506322041    9.15020454935040
H        20.41236356229518   10.26750332728962   11.24290864899935
H        20.64338321595310   10.15917195642574    8.78983016566031
H        18.85270954680112   11.03580486727024    7.33844745588074
H        16.81356187513493   12.01023416036182    8.34493953202070
H        18.14001183921630   14.12649395674951   11.00482336351085
H        18.34798464749265   15.97760346024080   12.60918979059066
H        16.66682270409933   16.26967053817002   14.38808070164777
H        14.74956173965155   14.72382213189056   14.54101023220479
H        14.53978463258929   12.85336807003168   12.93142220471711
H        17.88008535570839   11.80195334073062   15.18740260201056
H        19.10089257211263   13.43426174927643   16.59940222040269
H        20.97582168661713   14.71750506753312   15.63759770386968
H        21.63189209532396   14.37420327027070   13.28896864213712
H        20.41481880334961   12.77258911676828   11.88473446949373

