82
CSD_code = QEKWUY | q = 0 | S = 0 | Stoichiometry = C41H21BF15NiO2P | MND = 5
Ni       -0.06873217374500    5.75276235870201    3.70203264938255
P         1.26543602050719    6.59727375753502    5.18927531833654
O        -2.57571463854982    8.40021163390126    4.72356179427742
B        -3.42894473093566    8.22874977400211    3.46483182503641
O        -0.65659528834349    7.66102554558612    3.85709588073085
C        -1.33964866479387    8.10483046913798    4.79815867476993
C         1.05082458388884    7.86974888426748    7.68929216215840
C         0.48243948870345    7.67362496733614    6.43541425383581
C        -0.71569108253173    8.32817951254811    6.12601687269146
C        -1.33059155160795    9.15021331934626    7.06315287708346
C        -0.74729044221520    9.34439082383373    8.30151050634331
C         0.44313289967424    8.70533842982306    8.61107135903085
C         2.22799269960735    7.81093090225016    4.22891301256860
C         2.98974236264934    8.79992596177031    4.84067343663865
C         3.65900384875566    9.72703333840909    4.06140519776056
C         3.56850074414972    9.67495374898714    2.67937925955624
C         2.80836606650752    8.69109762085817    2.06720481997290
C         2.13967594047313    7.76171633453036    2.84154611890197
C         2.49898894931034    5.67316537041349    6.15958270054484
C         2.01237412743235    4.77497989594349    7.10796428299506
C         2.88525488672653    3.99875953125172    7.84473059273119
C         4.25121834214670    4.09873914302548    7.62517929076093
C         4.73771909357696    4.96975869306449    6.66493506146349
C         3.86606087446497    5.75271366570051    5.92687451969508
C        -4.13296048710282    6.74473395610051    3.52076837759220
F        -6.12791852991380    7.56592008748101    2.54131165918740
C        -5.43503601716565    6.54582062565829    3.06239552262812
F        -7.33232680183920    5.20025175933126    2.64491840513501
C        -6.08236295957060    5.31475445905403    3.09819065386188
F        -6.02632971769190    3.00768076988947    3.64264284158138
C        -5.42622411998222    4.19851754953379    3.60410722274282
F        -3.43519281456731    3.30105263152093    4.52759594840164
C        -4.12537372122430    4.35176640492575    4.05894324295776
F        -2.22137776725279    5.61705509926444    4.45449359651999
C        -3.51689740198109    5.60114604625394    4.01305647090430
C        -2.47502732657317    8.44304204487731    2.15895568614112
F        -1.65445013004205   10.43691259868709    3.12651951341777
C        -1.60358049022556    9.53188236453405    2.13537035303954
F         0.20701504057463   10.74773564132197    1.20937700932634
C        -0.64194166525927    9.71318704810901    1.15380271059703
F         0.40012733710344    8.92749496837059   -0.82289840075246
C        -0.54557091718188    8.79392275449505    0.11588258481975
F        -1.34485336338741    6.82715149948671   -0.91622750972654
C        -1.42853960353310    7.72598043896930    0.07729456093291
F        -3.17474337117915    6.49047271242326    1.01228695742802
C        -2.36903037810963    7.56555742454276    1.09113976526952
C        -4.55426780348265    9.40025201252110    3.62136661706265
F        -4.32065966128753   10.25277527902663    1.42373065901918
C        -4.89273223493490   10.31874007595641    2.63623292142799
F        -6.11638302578022   12.18926768238945    1.85590212442064
C        -5.83091808036638   11.32653252298793    2.83699964283170
F        -7.36819013216560   12.40532144984652    4.27648265840156
C        -6.47099823090379   11.43830722709151    4.06456121948151
F        -6.78083469717546   10.61174014573255    6.25720233195192
C        -6.16849841092596   10.52697387520066    5.06882664321091
F        -4.98773889900018    8.65901998321037    5.82306876544354
C        -5.22868850379196    9.53161453923624    4.83050947958100
C         0.49840863232533    3.92603355604385    3.76753386469473
C         0.48961196884030    4.25479828562989    2.37694944954569
C        -0.70037279407077    4.72813672772036    1.86178122694755
C         1.76741148236355    4.25081376002867    1.58628689191299
H         1.96826933458718    7.36157175791497    7.94971458470071
H        -2.26036913425316    9.63048235938828    6.80247177571932
H        -1.22056956898262    9.98862239552867    9.02618257992724
H         0.90026591626177    8.85209369077459    9.57832321892957
H         3.05052372174552    8.84649587844940    5.91926004021692
H         4.24703039415558   10.49915643512640    4.53468286200062
H         4.08208219963593   10.40922883183272    2.07800797821838
H         2.73363782424946    8.65887173748782    0.99063628869612
H         1.51464888381183    6.99782847112044    2.37898331823481
H         0.94275273421281    4.70081786488939    7.25904105157651
H         2.50501674685058    3.31201544406581    8.58607139658643
H         4.93514859040591    3.49127585597987    8.19833821448539
H         5.80061309205607    5.03873236738954    6.48684500842119
H         4.24668619016403    6.42775258279487    5.17367008162093
H         1.43068580568111    3.58011543981818    4.20542997115143
H        -0.39573275587427    3.46587049466688    4.19710869087637
H        -1.65141722606333    4.40990493141062    2.27430221586799
H        -0.74119665221968    5.09630696657846    0.84717473883699
H         1.96756021263058    3.22595337542974    1.27269856663779
H         2.61079991187753    4.58803790208045    2.18698547579578
H         1.68748701968416    4.86727552760645    0.69420780629554

