87
CSD_code = QELDOA | q = 1 | S = 0 | Stoichiometry = C40H42NOP2Pd(1+) | MND = 4
Pd        8.48887110877275    5.66051707694699    4.86821376212452
P         7.33738018530451    3.74805023809991    2.33781444527993
P         6.57789762558748    4.73532677924944    5.58222228490634
O         8.16321965076180    4.89950059123988    2.77610180067982
N        10.38349117917414    6.44594374815896    4.29589421108106
C         8.95963605067191    6.50238486074581    6.60551240200740
C         8.51085683226575    6.23536426525448    7.86539482871692
C         9.02556569922899    6.92953383833953    8.98650389595732
C         8.57417857791293    6.66408307880165   10.29474587612826
C         9.09002744527188    7.34765583595793   11.36068222697740
C        10.07760465917686    8.32573769256191   11.16701127414350
C        10.53444754680083    8.60652932183353    9.90950489044681
C        10.02249774144332    7.91926363444425    8.79009930737110
C        10.46881192861219    8.18330320383971    7.47819059696859
C         9.95259029732314    7.49721402847039    6.41367383606618
C        10.35408556797136    7.75890816183326    4.98115811002417
C         9.29038106250429    8.67116183561701    4.35163736858489
C        11.43975296120914    5.59557643009583    4.85620685640775
C        10.62019331376134    6.59064593881243    2.85939666719328
C         6.51600275574295    2.70321322975223    3.62743604208336
C         5.63211857704414    3.76429061109866    4.31342867888125
C         5.11041714886554    4.68863858864376    3.19594407857600
C         5.57998240014078    4.07381219249575    1.86249367481211
C         5.08540695257410    2.65686907647990    1.76619876525777
C         5.61529615827307    1.89381279471419    2.73368469785670
C         4.08744756664651    2.27361450690554    0.72795116449789
C         5.37544744481267    0.45497507187879    3.02994297758690
C         8.24016908355246    2.69230761553745    1.18568332107839
C         7.78219967503867    2.35009370918367   -0.07736213690091
C         8.56773144893291    1.55121084095668   -0.89007929825367
C         9.79929396468521    1.09922159835795   -0.44369715055275
C        10.25787800565134    1.44628566001784    0.81801917089415
C         9.47913091366411    2.24602564843360    1.63276021798585
C         5.29169248796265    5.83156077445574    6.24213625261913
C         5.61806547038240    7.18413200948535    6.31481050068397
C         4.69380408596027    8.10170697647049    6.77864025444146
C         3.43416077011533    7.67505895331789    7.16724260103469
C         3.09622828974482    6.33411624505416    7.07558438226642
C         4.01577551830159    5.41233750837557    6.60865489533825
C         7.00420560820423    3.42452551321714    6.77408048081677
C         6.14281066003018    2.88357528935282    7.71999914751394
C         6.58627739225854    1.86909820209832    8.55219254951851
C         7.88104038211227    1.38991175911131    8.44282361811653
C         8.74831725685748    1.93269850616444    7.50617245248859
C         8.31393495689830    2.94976702271694    6.67804125905440
H         7.74068044469695    5.49350713370797    8.04862680054960
H         7.81463784568498    5.90869684214384   10.43760356733911
H         8.74133228886720    7.13896881074871   12.36082658294090
H        10.47300111621520    8.85503308027749   12.02052999268953
H        11.29387615979126    9.35892073721699    9.75473042413757
H        11.22681514027987    8.93914583552710    7.32619366211356
H        11.34113882580680    8.24372533941396    4.91984446581811
H         9.62273922567483    9.09159423710974    3.40586955651071
H         9.07737628466438    9.49338175866749    5.03170814799625
H         8.35805887882193    8.09751811379144    4.19129428762956
H        11.34223949359461    5.52634974611808    5.94206276716496
H        12.43217131759939    6.00196586265115    4.62135230783213
H        11.36709707315943    4.59229732263283    4.42624345839252
H         9.77018906319203    7.06746621544727    2.37182376126838
H        10.75077134234639    5.60555390423809    2.40955846998102
H        11.52471277411471    7.18283605011827    2.67275782024204
H         7.12632474509767    2.12017392662194    4.31874318380306
H         4.80806128684645    3.25767611415531    4.83261258162715
H         5.53956742956445    5.69525273948677    3.30386335754839
H         4.02453479413750    4.78304585950177    3.22100781809792
H         5.36554435197311    4.70633710695245    1.00352045573982
H         4.28395395403896    2.79595481063633   -0.20644718536353
H         3.08393395753062    2.55055234086884    1.05336194703597
H         4.10038995088290    1.20395729496757    0.53969742489078
H         6.32297666148162   -0.08178443035201    3.06886840991645
H         4.74324675608574   -0.00619360881159    2.27821488741119
H         4.89318383556323    0.34489808076225    4.00135604589607
H         6.82356122749559    2.70698580060319   -0.42019700229704
H         8.21886343206998    1.28161931726524   -1.87510626023084
H        10.40640003594467    0.47651683326915   -1.08254224822762
H        11.21860166231117    1.09328393954005    1.16121594802337
H         9.81698479543521    2.53301522779989    2.62114985801138
H         6.61178097476865    7.50220975741579    6.00397482307177
H         4.95328698186826    9.14762220760484    6.83655369687890
H         2.71114031316664    8.38748514666139    7.53318454231226
H         2.10941776929744    6.00557031699367    7.36495179929712
H         3.72844582719752    4.37431616100771    6.52282615908991
H         5.13863949996237    3.26481577049020    7.82579611047554
H         5.91838435215999    1.45475504937356    9.29202841015766
H         8.21963734741523    0.60027061322869    9.09549850797519
H         9.76102797526135    1.56599153360554    7.43226185316186
H         8.99644840005911    3.41005063555913    5.94953156423280

