103
CSD_code = QELJOH | q = 0 | S = 0 | Stoichiometry = C48H31Cl2F18FeN3 | MND = 5
Fe        1.86694796295508    1.72659853249134    8.86716605259988
Cl        0.73930219614726    2.34374043586049   10.47475857770856
Cl        2.80227475858487   -0.12197575107007    9.20544652173093
F         4.38066132476267    9.32140346756923   14.87473642776391
F         6.26973538943524    8.92029956298758   15.81544916313648
F         4.49517027457295    9.11747589798279   17.01173434953350
F         4.88668420971982    4.69405266959426   19.05824126315287
F         3.43531651934979    3.43436034209567   18.09370127131428
F         5.53250292671511    3.09249035830428   17.77707246296984
F        -2.97486866607684    4.89410231403768   11.93986943001605
F        -4.45688178474530    4.68831315688178   13.48240244076190
F        -2.50838043745201    3.81901913478816   13.74270790441770
F        -7.83452014454444    1.37354074032781   12.55668410820544
F        -7.25283121789704   -0.53062133023623   11.74217171326085
F        -7.70492559919037    1.10694319745714   10.42666201232322
F        -3.74521272521343   -6.42328730584998   10.34635515827088
F        -2.28485903904799   -7.99332823056377   10.17038842636954
F        -2.93098695090694   -6.92079143629418    8.42154002735749
F         2.29419878518939   -6.83137675232336   11.07232329526567
F         2.93819505655791   -5.50242466829335    9.51088539242399
F         2.75824296636846   -4.78334614280638   11.53035879415866
N         3.41892337382432    2.91164853982796    9.24571621996826
N         2.43639378892422    1.93977630632767    7.21414904622706
N         0.39933716671307    0.79330893002627    7.91809084659407
C         4.12004247355817    3.18877410935159    8.18217976519851
C         3.58150622804116    2.64186764369932    6.96989781854817
C         4.06967008610435    2.78893044565503    5.67806895018738
H         4.97801389947535    3.34285309223255    5.50584605542179
C         3.37990544387918    2.21367708084331    4.61893273414111
H         3.74899610399449    2.31897787280676    3.61147993380778
C         2.21782907933873    1.49982870169794    4.86512273487635
H         1.67212494567603    1.04033338276797    4.05722743907028
C         1.75971002871182    1.36960860495164    6.17231158869531
C         0.60952195921103    0.65410885734636    6.63681100720000
C         5.35382070715861    4.03417553687228    8.18101547314495
H         5.57206820301559    4.39490141273687    9.18307845001694
H         5.22785176306224    4.88712520136860    7.51552685100490
H         6.20047340213633    3.45063757385186    7.82157358093042
C        -0.25151985631959   -0.15877044615641    5.72589087061957
H        -1.13737685866324   -0.50915325111906    6.24967895073048
H         0.30449021942315   -1.02071849546912    5.35886271687713
H        -0.55612335247330    0.43726077205878    4.86752465935805
C         3.71456372726407    3.49067754127980   10.49275360863050
C         3.11697889988015    4.71936063163229   10.80662799450415
C         3.33341039341902    5.26771848929007   12.05800179312539
H         2.85007971650981    6.19888345131418   12.31177631945656
C         4.12451155830573    4.62059729807941   13.00273659199361
C         4.72150505256685    3.41018513376412   12.66343116597782
H         5.36782449463228    2.91665823159799   13.37370625906679
C         4.53745681192294    2.83614177437557   11.41675488586431
C         2.26790961817642    5.42510027323029    9.79434819730226
H         1.77511736064029    6.28283855237151   10.24241404021208
H         1.50799296560463    4.74765226802552    9.40245825607712
H         2.87465988762720    5.76993027132303    8.95653844970620
C         5.22024975609038    1.55717455810815   11.05396761757756
H         5.91853191469952    1.71553283023241   10.23245110817125
H         4.49466175705612    0.81712470522357   10.72255855940386
H         5.76756256587334    1.15905015362191   11.90337442863994
C         4.33757897497405    5.21090481435774   14.32887652451601
C         4.51852473022477    6.58554786854546   14.47479604459939
H         4.51193421980910    7.22495756068003   13.60533686309648
C         4.72390290907918    7.13685813024201   15.72878253610217
C         4.76323548100499    6.34225636181125   16.86661085823329
H         4.92527669679998    6.77840168443107   17.83978264420492
C         4.58252861221756    4.97584384915911   16.71724057980924
C         4.37106608180837    4.41055499447914   15.46860244936530
H         4.21402911484563    3.34585275568415   15.38564176114480
C         4.95783941161258    8.61765368743922   15.85937567599245
C         4.60960184305566    4.06216080412135   17.91301781979127
C        -0.54089833182043    0.05261757938880    8.63428294129031
C        -1.57416605382440    0.69709907306268    9.30155706712635
H        -1.73422870785497    1.75074662660357    9.13725663778161
C        -2.38132883327641    0.00275157580567   10.19319409226237
C        -2.17827474637611   -1.36205032013616   10.42965738684747
C        -1.15922116322837   -2.01091147693643    9.72176585561210
C        -0.35235365977709   -1.31000472060727    8.83467816729929
H         0.45892812828523   -1.81128990753246    8.32953906296669
C        -2.95998398148727   -2.08305230751441   11.48747715285230
H        -3.25002953227147   -1.39735122836328   12.27984766406815
H        -2.36719886109053   -2.88426178342196   11.92184502443974
H        -3.86890077607371   -2.52467665513693   11.08053176608733
C        -3.39727057217718    0.79309209436117   10.91295347290509
C        -3.00664324138546    1.97472999752635   11.53986109787081
H        -1.96758649719662    2.27262311936070   11.52303015416054
C        -3.94609788835171    2.75803093947285   12.19364445933728
C        -5.28340668747584    2.39096716194294   12.23709503306226
H        -6.01004460270587    3.00241216168253   12.74900175059739
C        -5.66335599197331    1.21488354109944   11.60755922567184
C        -4.73673315818364    0.42160577822878   10.94647180193942
H        -5.06521725102017   -0.47621144414281   10.44649298501227
C        -3.47958694150185    4.03428414170225   12.84305886148551
C        -7.10887954988574    0.79621802231853   11.59423039711312
C        -0.85722446747085   -3.44273107857844    9.90784964549027
C        -1.83921400979039   -4.41699735695068    9.76433823408704
H        -2.85202807960188   -4.13547843319488    9.52125653420280
C        -1.51925121312146   -5.75854815803609    9.91402911074110
C        -0.22355636067990   -6.15908841555562   10.20260443481367
H         0.01827637944380   -7.20360610759610   10.32251343541697
C         0.75238930483570   -5.18196832017574   10.33942332493096
C         0.44928669839558   -3.83710071717284   10.18844305158456
H         1.22377893427042   -3.09240798898628   10.30158894283991
C        -2.60984721343834   -6.77766370466728    9.72169545438159
C         2.17910976233134   -5.57622042707011   10.61952225596330

