49
CSD_code = QELPAZ | q = 0 | S = 0 | Stoichiometry = C20H20N6NiS2 | MND = 4
Ni        6.55058423038899    0.00052562512159   -0.00052505059595
S         8.24194808059101   -0.06709365812837   -1.45989777600549
N         5.86312757526218   -1.53784856011935   -0.94678776661979
N         6.54519493495717   -2.03786754448659   -1.99748022662219
N         8.40494285540017   -1.91817461003578   -3.32985099890091
H         8.01165160098582   -2.61742196001352   -3.93495904642863
H         9.17270631144081   -1.36046790264948   -3.65874908242623
C         2.54259723094117   -5.08610640900153   -1.67146189896147
C         3.17151812718129   -5.79536643384882   -2.70115949311331
H         4.13958272410861   -5.47933169439514   -3.05714171035067
C         2.56996459831986   -6.90222049249965   -3.26456202156098
H         3.07061912030361   -7.43918772544356   -4.05725050138194
C         1.32845048220135   -7.33033575587895   -2.81976566018950
H         0.86194772327185   -8.19715113301072   -3.26372831272670
C         0.69100976226568   -6.64044209592657   -1.80078022143905
H        -0.27613333570132   -6.96876166165913   -1.44895518008451
C         1.29068211614404   -5.53469283492985   -1.23317835093607
H         0.78894535249082   -5.00031749312821   -0.43877969845351
C         3.12455369796020   -3.92468909775234   -1.04155449448682
H         2.55011897906505   -3.51042667752314   -0.22096913371949
C         4.28436296841586   -3.31732635884606   -1.37252440670840
H         4.90151800392471   -3.66821332193517   -2.18483982238250
C         4.75589106071164   -2.17643626786587   -0.66431166889576
H         4.15517976371702   -1.82191961129866    0.16138962904418
C         7.65463007573550   -1.44093383943045   -2.31487908534749
S         4.86021587489217    0.06678507206464    1.46021537950528
N         7.23900289955616    1.53771902913257    0.94686468051492
N         6.55685898901020    2.03783496702443    1.99746962861342
N         4.69709710279974    1.91824517790022    3.32982609064654
H         5.09040177154674    2.61752925886948    3.93488952224584
H         3.92936190667296    1.36052700261931    3.65878561901916
C        10.55941157869429    5.08608659146960    1.67146490638431
C         9.93045572673023    5.79531621791766    2.70116280355225
H         8.96238434204382    5.47926449396140    3.05710986200420
C        10.53196790325588    6.90218214254404    3.26458525482202
H        10.03128161337182    7.43912907995698    4.05726747496193
C        11.77348097864550    7.33033262271311    2.81981735008334
H        12.23995835755897    8.19714813696246    3.26380704576344
C        12.41095553588292    6.64047024666321    1.80083074615592
H        13.37810227505335    6.96881170024545    1.44903613242064
C        11.81132129289439    5.53471268854369    1.23320318592656
H        12.31308756949421    5.00035723349086    0.43880926277344
C         9.97747500315267    3.92467865702591    1.04152092281347
H        10.55192093575853    3.51043534323269    0.22093372923939
C         8.81770307655566    3.31726478426351    1.37252205261873
H         8.20052956253870    3.66816059536560    2.18482043653855
C         8.34625250947452    2.17628924249700    0.66439878257514
H         8.94680722898580    1.82194706084507   -0.16147700358267
C         5.44737192534673    1.44098016937635    2.31483811369845

