58
CSD_code = QELRII | q = 1 | S = 0 | Stoichiometry = C24H30N2PPd(1+) | MND = 4
Pd       -3.98000555544924    4.69964930831875    4.52527407877614
P        -2.10867100486381    5.39093512893139    3.45995539176938
N        -5.58324989777718    3.98165021194201    5.77837864316279
N        -4.94861447271245    4.10910045362867    2.70605945533742
C        -3.26871651690886    5.30622395084120    6.28589044751402
C        -2.44178914219034    6.37334736217357    6.58737967228465
C        -2.15080973588787    6.67192211657321    7.91329069104979
C        -2.68694012451521    5.91115707881239    8.93622838592936
C        -3.53962900114872    4.85916268959275    8.64413527718238
C        -3.83510147150212    4.56059500734948    7.32344596333652
C        -4.76992952862977    3.44985145953278    6.90512094231789
C        -3.91822824943791    2.25458720195224    6.45449369004692
C        -6.44528243750841    5.07248739108871    6.24436392564437
C        -6.42885383605917    2.93861753911310    5.19452672408757
C        -1.61399469340565    4.66833361008229    1.89220886383598
C        -0.32041642356953    4.29286026416876    1.92425002416935
C         0.40971860811399    3.63990613806465    0.80528814977361
C         0.34940501607889    4.59773697978773    3.19545327543791
C         1.77902796117339    4.25296974390756    3.41564516710298
C        -0.44337543727440    5.20939068397974    4.09763386800777
C        -2.39323421114519    7.15126485894998    3.08996405418079
C        -1.42407386970295    7.93817737608099    2.47902883374225
C        -1.69621588509767    9.26678707442657    2.20682754851907
C        -2.92884187443458    9.80782629679705    2.53902319653359
C        -3.89669418188257    9.02279150171833    3.14635933679610
C        -3.63252195108923    7.69332921069619    3.42341438198540
C        -5.39303209584667    4.12895018145045    1.64812711438708
C        -5.95316181024824    4.12220132111539    0.33846960036537
H        -2.01729100468455    6.99001532260540    5.80165995100244
H        -1.50183227564490    7.50391522681451    8.14164025533759
H        -2.45230720257740    6.14302639657890    9.96335129332853
H        -3.97882946454344    4.27551126002358    9.44004291488202
H        -5.43002945275259    3.14308564348577    7.73120732540610
H        -3.16711116026498    2.05192166976799    7.21504046108626
H        -3.39388835324190    2.50175033380105    5.51053976330522
H        -4.51270073096007    1.35423412831009    6.32052610673004
H        -7.20039309973421    4.69966610511652    6.94762358152826
H        -6.95836092414354    5.52393544840503    5.39228613215781
H        -5.85412694437938    5.84025501314230    6.74585683368757
H        -7.02245720519688    2.44035254376143    5.97073729799080
H        -5.82346889318590    2.19401760049644    4.67546725738745
H        -7.11567557469073    3.38582531612684    4.47442673113692
H        -2.27707044514610    4.53814978785475    1.05307036544293
H        -0.23952045540028    3.50426200498728   -0.05538518520926
H         0.78724868853048    2.66711865838605    1.11755946736977
H         1.26534831584875    4.24429568808060    0.50736038112834
H         2.10070856918089    4.55859722741082    4.40715224243086
H         2.40763603249114    4.74507158301316    2.67466109759578
H         1.92896498885993    3.17903711932577    3.31339768851102
H        -0.14597968541579    5.49815770774036    5.09102069605457
H        -0.46601809049505    7.50687386472312    2.22585757561209
H        -0.94564289625820    9.88316777188846    1.73614917863596
H        -3.13484486158225   10.84549286522564    2.32649277035712
H        -4.85331559425139    9.45033633697255    3.40645711422260
H        -4.38693029364369    7.06194552581027    3.91747907643151
H        -5.79455888511036    3.14726035967334   -0.12312957518589
H        -5.47739779586416    4.89133685485715   -0.27019857050871
H        -7.02342348281410    4.32197249455335    0.39331306886657

