51
CSD_code = QELRIL | q = 1 | S = 0 | Stoichiometry = C21H20N5O3PRe(1+) | MND = 6
Re        0.44740746885805   12.25538743418527   11.09677604995831
P         2.52171651488397   12.74831008259613    9.86809840912650
O        -1.96430239195638   11.47145892858812   12.87418045969842
O        -0.80805777258809   14.97091301447819   10.29253959586859
O        -0.71712654056723   10.83138501677518    8.60353233631859
N         1.48515537908163   13.02639581370296   12.82708167377968
N         1.56361735854200   10.54459550710854   11.80685642024561
N         5.17115249751906   13.48151030150766    9.81502011975192
N         3.83015729921110   14.18423664318328    7.92630068799055
N         4.47748930048186   11.86428218809657    8.15008509027815
C         1.41911233007914   14.24617124346230   13.33413200679238
H         0.73934666347866   14.93759161160200   12.85347731950369
C         2.17128495597936   14.65320329183955   14.43675026142092
H         2.06749126685386   15.66182272659194   14.80218057736819
C         3.02827700599373   13.76208811861389   15.03880033382663
H         3.62489189648745   14.04608128504913   15.89180955511321
C         3.11708835578614   12.45624808605779   14.52963529480709
C         3.96935818486363   11.45767449407950   15.08363483737082
H         4.57779212222204   11.72581209510945   15.93336402797487
C         4.01342913257877   10.20665111474453   14.56482809448004
H         4.65784967080244    9.45324951880061   14.99064673884088
C         3.20686139060317    9.84297097125419   13.44779546548463
C         3.20570898619773    8.55632251205395   12.88427758078102
H         3.84052512678296    7.78914115536201   13.29996571435851
C         2.38407591942269    8.30088017303698   11.81146308276122
H         2.34778488667199    7.32489274340847   11.35571164394532
C         1.57909285720119    9.32151241050641   11.30372820019611
H         0.92562001633764    9.13247648341654   10.46217157597498
C         2.35809680589345   10.81040500817091   12.86899621654350
C         2.31403227870990   12.13358159175411   13.41518418066566
C        -1.09200010337996   11.76746109335368   12.20876261977666
C        -0.38044657515396   13.95339667288521   10.57972725774161
C        -0.32213924740004   11.37371998453778    9.52596063547233
C         4.08857845495753   13.26921909273332   10.74344489121988
H         3.90247441993876   14.20040501208099   11.29435149679917
H         4.38797767017698   12.49498599110373   11.46304534468769
C         2.54154708489915   14.08055827034786    8.56507204950900
H         1.77559895025624   13.84892595178492    7.81508360858136
H         2.28616364650925   15.04118031021382    9.02863973043936
C         3.28760530969048   11.40527989751251    8.82333588932680
H         3.54539244768738   10.54610348246364    9.45641554269773
H         2.55254954718897   11.07651952576873    8.07839589466245
C         5.51356946423103   12.27119951574143    9.08323470150596
H         5.70040793635484   11.46065769870402    9.79395520065435
H         6.42849096391944   12.46383700195519    8.51771658861770
C         4.87933917439153   14.54461417165649    8.86211799284373
H         5.79128040529147   14.75085354766910    8.29656523616530
H         4.58707882714039   15.44600612628765    9.40684663628545
C         4.20121346697372   12.96184787578041    7.23418859723652
H         3.39641281834339   12.67099808919612    6.55516067954886
H         5.10607637158454   13.15617912308646    6.65315585499923

