56
CSD_code = QELSIK | q = 1 | S = 0 | Stoichiometry = C14H31B9IrS(1+) | MND = 10
Ir       -7.25833469799527   12.04376465861474   -3.30693131465830
S        -7.58248891692922   11.10255784105362   -6.47621421897002
B        -7.59901450987790   15.56501502811572   -5.39404430115972
H        -7.71132536388637   16.56498830877104   -5.99182472536153
B        -7.27585352393985   15.51779275484331   -3.64641615580541
H        -7.08318561278497   16.41497489942905   -2.91992178742847
B        -8.85207775504274   14.97089462676295   -4.25960921882588
H        -9.83572034679582   15.57429802098004   -4.06013316444058
B        -8.55338101661383   14.11684522228596   -5.79687027313436
H        -9.32511552498254   14.10539395722620   -6.68522090544590
B        -6.78954168376532   14.13565224743603   -6.07267861462791
H        -6.22554507516560   14.03565544680702   -7.09713744009735
B        -6.02676357931795   15.03016728595477   -4.77577879206744
H        -4.95041349740128   15.48388754656279   -4.84392254975745
C        -6.40312366454443   14.08192391759816   -3.39810800554397
H        -5.61290260128639   14.06862037711375   -2.65457458246146
C        -6.14526153434227   13.30000218912777   -4.72760682529414
H        -5.18656940866616   12.80117544123844   -4.84306607114023
B        -7.59588705198858   12.71051270508149   -5.36699443232644
B        -8.89350637977597   13.18661836494113   -4.27166594875913
H        -9.92406168155952   12.63414094215918   -4.14990454863805
B        -8.04036532834793   14.05435871336735   -2.96260725449123
H        -8.34388806474706   14.11635004296681   -1.83062599905610
C        -9.37057087864769   10.83875504851843   -6.63940276746332
H        -9.53666459585466    9.99994700556384   -7.30831965325452
H        -9.83728570050406   11.73739024902158   -7.02800377026796
H        -9.77521844497848   10.61571245152185   -5.66012491611821
C        -7.28469303388448   11.66115346634554   -8.18563773199643
H        -7.59302600635968   10.86524020709665   -8.85631349300697
H        -6.22249444972648   11.84110326305184   -8.31040828035807
H        -7.84373418607072   12.56935090756021   -8.38407589704609
C        -8.08747249116606   10.74040270398600   -1.75266263145548
C        -7.82655324730190    9.95054377449548   -2.92851599078698
C        -6.40706279876210    9.92395396437423   -3.13366111048768
C        -5.80498513423156   10.71188179130067   -2.12131046999052
C        -6.83278038957166   11.21505325258586   -1.26554019289480
C        -9.40072123152180   10.85225383943832   -1.05399818918691
H        -9.52749541969405   10.00848980118439   -0.37514346853392
H       -10.22503925507528   10.84525955149847   -1.76102081613067
H        -9.45759406551405   11.76665019300561   -0.47130228825907
C        -8.82160464880071    9.04183480596344   -3.57450292002051
H        -8.89688301497189    8.12579941024845   -2.98709313546445
H        -8.52291026889987    8.76511308306211   -4.58217202581814
H        -9.80997894187614    9.49360286842741   -3.59950240600888
C        -5.67363774430254    9.10478100559486   -4.14407494451109
H        -5.28814962801025    8.20153922174642   -3.67005020635555
H        -4.82299915314266    9.64408276582360   -4.55730102822422
H        -6.32329336086950    8.80448731046082   -4.96151503618995
C        -4.33926908557086   10.90246020549787   -1.92391628127817
H        -3.95639373056674   10.13660693167765   -1.24852233740897
H        -4.11759115290362   11.87039494330239   -1.47888999215928
H        -3.79598936581427   10.81511215478422   -2.86247593198796
C        -6.62191223291235   11.96462793442793    0.00614598295626
H        -6.55515863245913   11.26110284359680    0.83677024901496
H        -7.44961901425051   12.63996770810576    0.20684650462605
H        -5.70009187602954   12.54065479829747   -0.01534769444001

