58
CSD_code = QELSEF | q = 0 | S = 0 | Stoichiometry = C27H26Cl2P2Pd | MND = 4
Pd       19.61988592168522   10.92204608204147    9.58467350825448
P        17.91588706355392   11.57742113474445    8.29559535530881
P        20.94425057449513   12.16918713233645    8.28475081046673
Cl       21.31338383197636   10.44149113014911   11.01409631307342
Cl       18.10216613536020    9.59491468817325   10.62858300378949
C        19.84644180830910   13.25451581542370    7.26240720725698
C        18.63191894080333   12.44878155840820    6.79839897706626
C        16.55340498135688   10.56207154056859    7.68157247179287
C        16.58192369999145    9.96293062717066    6.42549784037198
C        15.54876045349576    9.12968590630461    6.03570407696923
C        14.49631837054730    8.87289297225845    6.89901548127312
C        14.48203394810577    9.44111161859913    8.16289860859585
C        15.50731103488755   10.27869047661944    8.55834254103420
C        17.11441011308324   12.91181136073001    9.23730230391988
C        15.89888403615917   13.47666354879355    8.85766519200896
C        15.34906495722509   14.50027522554398    9.60769410118567
C        16.00229157728590   14.96483784654354   10.73840330461204
C        17.20509084038655   14.39821264610641   11.12888349387147
C        17.76128719866430   13.37291540259201   10.38451650200489
C        22.38777032364327   13.17036295252052    8.71517283693695
C        22.43339596102649   14.55600307481494    8.61183639009822
C        23.57438150891868   15.23414603817851    9.00404110903743
C        24.66140806940888   14.53968193832164    9.50829792456723
C        24.61013245525008   13.15943101926166    9.62915949269353
C        23.47694161415050   12.47388061973576    9.23783107079325
C        21.60634543578349   11.00472582153082    7.05219415037181
C        22.45472990683304   11.42660045805037    6.03268075376722
C        22.92659793911513   10.51390501562055    5.10754138526313
C        22.55792420682581    9.18038651312100    5.19673729393553
C        21.72067460748226    8.75394796189975    6.21539931313260
C        21.24463258150333    9.66174783350046    7.14531678496757
C        17.63264490160702   13.31133777028803    6.03779149802386
H        19.51371008643517   14.08650304425388    7.89473253594765
H        20.39792774595685   13.65884317046486    6.40734470382596
H        18.99216248736463   11.64047041323771    6.14427401247918
H        17.41037931716781   10.13909322070487    5.75350878907992
H        15.56992549841948    8.67177689268666    5.05755429225754
H        13.69425908215729    8.21872664273667    6.59087359197790
H        13.67318457786805    9.22452629205171    8.84443091495200
H        15.51764074123215   10.70471464789231    9.55149374473260
H        15.37884321624662   13.10037790963207    7.98788450904209
H        14.40449118338189   14.93335057326957    9.31274568990078
H        15.56619914067669   15.76105452515392   11.32304436575972
H        17.70491708812089   14.74913551744258   12.01931059961747
H        18.70145381520218   12.90333729931952   10.71510229522293
H        21.58657720660516   15.10721624069029    8.22889685742818
H        23.61199762845206   16.31052816830880    8.92004310450341
H        25.54634999697043   15.07649020426523    9.81626699130081
H        25.45204425223765   12.61983605075553   10.03584077692943
H        23.40863528787747   11.40030769771749    9.35193266894354
H        22.74978083514968   12.46605955001223    5.97747396006252
H        23.58716477970123   10.84043377350311    4.31777967344472
H        22.93201186135563    8.47027146126070    4.47435560026943
H        21.44457892078972    7.71266507846597    6.28859099336703
H        20.59752560378806    9.32245253055402    7.96990271624042
H        16.75784486860450   12.72818668747628    5.75628233563075
H        18.08832557842821   13.70344024919746    5.12954011922284
H        17.30837420077867   14.15178842905381    6.64859306148957

