75
CSD_code = QELTIK | q = 0 | S = 0 | Stoichiometry = C31H38ClN2OPPd | MND = 4
Pd        7.84048058618084    5.03202570482432   22.12391428407078
Cl        8.06856208286180    5.15331534301311   19.79030071776971
C         7.62543550430363    4.75290045937838   24.08151421430530
C         6.61705244145821    5.24912393786811   24.92669649160428
C         6.54977158092752    4.86680501842274   26.23792871336753
C         7.49919151698197    3.97984884766880   26.78346857513683
C         7.45305437261547    3.60246239430185   28.14142494494556
C         8.38137959282863    2.75000444287987   28.66682359991639
C         9.40168319512769    2.24106182283379   27.85022510068388
C         9.47243371178666    2.58359553373103   26.52913003415257
C         8.52472945226879    3.45597813034682   25.94789559275299
C         8.53980413933985    3.84598411359081   24.58544828735149
C         9.56138285838145    3.33717023425930   23.58830116267733
N         8.87513977300591    3.19089497818707   22.28298520372003
P         6.75150122547947    6.94597703976697   22.09229377963743
C         7.21926598373366    8.33190213475940   23.23060532221013
C         6.58714768118538    9.53773113185640   22.58764506019974
C         6.66558963525947    9.45303225542222   21.25631163086216
C         7.34462695761126    8.17585390398924   20.84630512786892
C         8.81806318618690    8.22094770765668   21.34654330576661
C         8.72514921592942    8.36477002542142   22.88135383993915
C         9.55091932566469    9.39069131652465   20.70421290843469
O         9.77483138543725   10.41605698625374   21.32842834150857
N         9.91225839505135    9.25820822065387   19.40980512198999
C        10.55663987670000   10.37512920164506   18.75424924649369
C         9.73336461232849    8.11186925196988   18.55117147658743
C         6.09682633508594   10.66421774543167   23.43086315686347
C         6.27578535810278   10.45503612257088   20.22546685380460
C        10.68486984564663    4.37862967656235   23.49587686125692
C         7.86177137724905    2.13453934340952   22.34968719845835
C         9.81512206656828    2.85696239025867   21.21466970322815
C         4.96263553809127    6.68416544813261   21.95103979633652
C         4.60918451426428    5.35446382469771   21.71417788224970
C         3.28115981533125    4.99915614280247   21.57261552505428
C         2.29601824798849    5.96893431731962   21.67369454638238
C         2.64142267906543    7.28865883473860   21.91742444426957
C         3.96923102185492    7.65226368390287   22.05765361452686
H         5.87585303099819    5.93780596026427   24.52923926546473
H         5.76710333483377    5.24541634832733   26.88147063295489
H         6.66511546464153    4.00773874176126   28.76084418742546
H         8.34061538125121    2.46610240780380   29.70819520376205
H        10.13801303417372    1.57438444631004   28.27580578752174
H        10.27600190042743    2.18678488265258   25.92692744426039
H         9.98154742898268    2.36157779975446   23.87902182560246
H         7.03064604880273    8.21474810184355   24.29625474338211
H         7.24420595641022    7.90637755658614   19.79765646338469
H         9.31222442181863    7.27249983223117   21.09240030989102
H         9.24188971142433    7.53922513066194   23.38403715173589
H         9.17231778045570    9.31103425169564   23.19189151599798
H        10.63808784682538   11.19231456308747   19.46778618943834
H        11.55432409433665   10.09074424252374   18.41223119540889
H         9.96746827805778   10.69771703193829   17.89243884208565
H         9.32030260337345    7.24866391955690   19.06336800380868
H         9.06554097659355    8.37053729465916   17.72416564874295
H        10.70005326735159    7.82776340652675   18.12648820327653
H         5.51040047733493   11.37043817651036   22.84873758448133
H         5.48877456002185   10.28916013880976   24.25415973974469
H         6.94619174818454   11.19830331805213   23.85755862227678
H         5.59896807622710   11.20164512271755   20.63294336045938
H         7.16578933195351   10.96726581404434   19.85813075215297
H         5.79404842250690    9.96258403222996   19.38142405427652
H        11.56438720731782    3.99330047449766   22.98495648292413
H        10.30747491041459    5.26570164473787   22.96008792991329
H        10.97654862836789    4.68142232505397   24.49962897637852
H         8.33274014756832    1.14796014971429   22.46869552738095
H         7.18834020867873    2.30133989069031   23.19416874019230
H         7.28023126861869    2.13339967140699   21.42260284146307
H        10.40350716592057    1.96639396485633   21.47577595942300
H         9.26133272130014    2.65763778666183   20.29694253699422
H        10.48491143834001    3.69261229551288   21.01418254985356
H         5.40316004131740    4.59820248733835   21.64140943268953
H         3.01009397256470    3.97030811245273   21.38614383059349
H         1.25687022800397    5.69544777046169   21.56477411602171
H         1.87007119688431    8.04062287836677   21.99964299132946
H         4.23426259977063    8.68065036064316   22.24805969093495

