64
CSD_code = QELTAF | q = 1 | S = 0 | Stoichiometry = C24H28N5O5PRe(1+) | MND = 6
Re        6.20646251646937    2.57989969971639    5.61390528953161
P         6.61674008430256    1.64745888898969    3.37498996672857
O         5.66314902422418    4.02505261570786    8.29728373530208
O         3.98943782786200    0.47654811890069    6.12757002564402
O         8.36734889593580    0.76548087904554    6.89364626904398
O         6.47342898780971   -2.16817028483394    2.34498421037874
O         5.22910734205291   -0.49714623157261   -0.75580594765949
N         7.54867562412622    4.15714598195173    5.02500336038109
N         4.95070536975183    4.00614315333430    4.59860315303935
N         7.78406831854595   -0.40066732362435    1.93158378700064
N         5.44276458180892    0.87483792243590    0.99813766434425
N         7.69600154009117    1.78313737646115    0.90382890067211
C         5.86591948354670    3.47887014362136    7.32115782320019
C         4.82234424523658    1.23936468309106    5.97326590552906
C         7.54710565054332    1.41768866445381    6.44382322567650
C         8.85641933259218    4.18504260654851    5.28332507544867
H         9.25127482879365    3.35701306608134    5.85733041681836
C         9.68846364668427    5.20209053702798    4.86591420993949
H        10.73781498554187    5.17142127586544    5.11109963779256
C         9.16050817958267    6.26744188561467    4.13635855885388
C         7.79685920370652    6.23383596336081    3.87315374010752
H         7.35232744743558    7.04250696526660    3.31699423511280
C         7.01277357315526    5.17781078920117    4.32760138416370
C         5.56046386169725    5.09901373221995    4.09875078303461
C         4.84219950044507    6.08253990313014    3.42573858384882
H         5.34433614456077    6.95076537695475    3.03212586738073
C         3.46697506982296    5.96797304220950    3.26083162637811
C         2.86001211090125    4.83146035379126    3.79517845053465
H         1.79551714481485    4.68481068183177    3.70847123876885
C         3.63092466752335    3.89154085388601    4.44628796480835
H         3.17280486439576    3.00740613918501    4.86999092007953
C        10.02501965021976    7.38119222322818    3.66466637000414
H        10.61246599420064    7.77783133352699    4.49060107566402
H         9.43882776414687    8.18473762194919    3.22816973715885
H        10.72696549039615    7.01522816028395    2.91563744412994
C         2.67156118535063    7.01645165213097    2.56934642753102
H         2.15059630304757    7.62347747655984    3.31037427919674
H         1.91581506836862    6.56788998195316    1.92844078231553
H         3.30402359118773    7.67199767359393    1.97704463575127
C         7.56672795236717    0.06630655343743    3.27762378317532
H         8.53219758972141    0.24357640516993    3.77745896054313
H         7.02573021726078   -0.71620043331093    3.82486425867306
C         7.24042093357672   -1.61872786447796    1.58368015855849
C         7.67273663934418   -2.21423440302389    0.27611899190745
H         7.38967319448325   -3.26365269302457    0.28308734528772
H         8.74625601733323   -2.12926174983026    0.13133454344474
H         7.14929903745431   -1.73431992651344   -0.54950017764954
C         5.11620403657611    1.33044791648297    2.31866772293908
H         4.51393800346080    0.58559790376740    2.84584517749038
H         4.54238737776753    2.27348909309478    2.27140842362227
C         4.85938147255562   -0.19630846611873    0.35768091767496
C         3.78368890122809   -0.94422450697525    1.09188447441271
H         3.34288745191139   -1.65207119998035    0.39498683807325
H         3.00768687558023   -0.28011352895321    1.46462852889187
H         4.21985972203293   -1.50803825382823    1.91554066129115
C         7.63691465513631    2.55538710520781    2.11944103157334
H         7.20258896196848    3.53752235527076    1.89679019967586
H         8.65117942891832    2.70353079437245    2.50962030579414
C         8.42464141955849    0.53960512350496    1.03814746295674
H         9.42525652431006    0.78606250919275    1.41982428004318
H         8.51554740599262    0.09965292505783    0.04625653196098
C         6.41117722019810    1.67465471046389    0.26294106550901
H         6.53290833664324    1.20280620051276   -0.71542218776141
H         6.01820152374794    2.69208984742710    0.12817988827638

