45
CSD_code = QELTIN | q = 1 | S = 0 | Stoichiometry = C18H17N2O6PRe(1+) | MND = 6
Re        1.23317967685435    3.53340752478188    7.52657198098957
P         3.41139456599911    2.59668926015485    6.83336823427204
O        -1.33409213863867    4.88872148059767    8.59610685455925
O         0.69144686968503    4.47577830395993    4.62873395667369
O        -0.33716664069939    0.89557415109038    7.09237903351387
O         4.37137646667143    1.53466941418710    9.11606082162839
H         4.45078329690822    0.59758776029499    8.90810606946085
O         2.01760785563697    0.93828329156259    5.29186720373645
H         2.14644895848317    1.36559818091149    4.43742155931278
O         5.44570753444049    2.75787264434636    5.20769211755246
H         5.95777374603521    3.16801731729653    4.50070172616636
N         1.83181994085768    3.02710128532648    9.53415334349452
N         2.41777739613432    5.23805134581839    8.12503354502316
C        -0.40358161224405    4.37776537083256    8.18794552689957
C         0.85506582615916    4.12610634956582    5.70481501603124
C         0.24624689751548    1.86516743101723    7.20067548318423
C         1.51973716182257    1.94494495389192   10.22324797063649
H         0.85009772403316    1.24041547926916    9.74765373939126
C         2.01078003677170    1.69073809859339   11.50420963505849
H         1.71724608903183    0.78665336574015   12.01214485511987
C         2.86159340664693    2.59432022614000   12.09389340304921
H         3.26538720599696    2.42495197456016   13.08009755407944
C         3.20474892497596    3.76028958747981   11.39159669317191
C         4.06858087669912    4.76324109202485   11.91868658887005
H         4.48297343522997    4.60874875661425   12.90293150711594
C         4.35765831521104    5.88295010491811   11.21258955476122
H         5.00614102279640    6.64337182632260   11.61956403459340
C         3.81053703407416    6.09569485778136    9.91446170244577
C         4.06478592969018    7.24672118012376    9.15106787498542
H         4.70207559283392    8.02205919600796    9.54742581752833
C         3.48429977805300    7.36425876438418    7.90982602873570
H         3.64520376547877    8.23721024071673    7.29852442460610
C         2.66918240921437    6.33683582221615    7.43401605211449
H         2.20275051341272    6.41603783252506    6.46071117852659
C         2.96638347200469    5.11259435865592    9.35427820449332
C         2.65588858677507    3.93227584296621   10.10399803012427
C         4.81358659781229    2.30655948582798    8.02731632777902
H         5.65173889348298    1.84872720884203    7.49113253188741
H         5.14245014311624    3.27195835073450    8.42923549105755
C         3.21124527870279    0.93427106346069    6.02638205517182
H         4.09407634949547    0.68732925930597    5.42416092362440
H         3.08304046354794    0.18114583465362    6.81194145872782
C         4.31745649281386    3.53493567853300    5.51256418343345
H         3.65623986823156    3.67166888500329    4.64445883126359
H         4.59332599220219    4.52899956097027    5.89585087512302

