75
CSD_code = QELVAE | q = 0 | S = 0 | Stoichiometry = C34H37ClNPPd | MND = 4
Pd        8.58326721142366    6.47012804240620   21.03733787161030
C         8.38790155054805    8.19801436667418   20.07076288532097
C         8.06846273412615    8.39888597363897   18.71482734572930
C         7.82949123135501    9.65426018933615   18.22780099030398
C         7.91030772169871   10.78429125819448   19.06607960299251
C         7.68842292978329   12.08431963579368   18.56698099771331
C         7.77004162371443   13.17546866938510   19.38400530614700
C         8.08425271007921   13.00884563896554   20.74063035317608
C         8.30225106013061   11.76237428308050   21.25675751642101
C         8.21669047495485   10.60902959963294   20.44457884745408
C         8.42248741024789    9.29010689003556   20.91967366319294
C         8.71865189016274    8.96587321464771   22.37047317237549
N         8.05021619404989    7.67984146649071   22.67940601611441
Cl        8.58626137850198    4.45912646312336   22.23205239125714
P         9.18114188435069    5.22663056998907   19.32483929129839
C        10.52713203675103    3.99677661462243   19.64518245871914
C        10.93701336406069    3.55625910309523   18.26710510384379
C        10.90064877775413    4.58656037266907   17.41538445841106
C        10.46249416507617    5.83651157314576   18.12219197459595
C        11.52756435662051    6.21584489560916   19.19822150919132
C        11.57185415796685    5.01073105293103   20.16757148815708
C        12.83026605341728    6.60022601328134   18.55779012056542
C        13.74516095927772    5.65695067913938   18.10331641067265
C        14.91564560996954    6.05287554420849   17.48057903236289
C        15.19158046455976    7.39687828593164   17.29880242905105
C        14.28530960282816    8.34479495356355   17.74180065145359
C        13.11591908742044    7.94768671556683   18.36424465699803
C         7.74269988869381    4.47559471174580   18.51659131574439
C         7.75247969116200    3.60853269612552   17.42814915845517
C         6.55808408985692    3.11188614850419   16.93700374499874
C         5.35377793386562    3.47112022410275   17.52077512531732
C         5.33737478934895    4.33549682433941   18.60387331261479
C         6.52637241408124    4.83710823226838   19.09882221398501
C        11.36863685725192    2.14836542045849   18.03790557993164
C        11.27008243229908    4.64121586213851   15.97171749743617
C        10.24038372430591    8.83939527010790   22.52277231594690
C         8.42246003896783    7.17426862636594   23.99917871989381
C         6.59412417230314    7.83456824598509   22.63968278382027
H         7.99713253761015    7.54112590446050   18.05126383450964
H         7.57590195062183    9.80133366812472   17.18643176990403
H         7.45318431567324   12.19888626445623   17.51792121794344
H         7.59812149890670   14.16833329197737   18.99473680238709
H         8.15563453623564   13.87811157202746   21.37875149969726
H         8.55472108487746   11.66396466762061   22.30201717589378
H         8.33960331961321    9.73728671341672   23.05903658224427
H        10.31228948874510    3.19892565753143   20.35320159146308
H        10.21771779634115    6.67385509085498   17.47135740410006
H        11.13350993267944    7.09623412234459   19.73216059913444
H        11.28100988612700    5.32455867531871   21.17957065476023
H        12.56347034457427    4.56171159819237   20.22301306875393
H        13.54295311298179    4.60382620270259   18.22421917810725
H        15.61559542364887    5.30619723433446   17.13407846464193
H        16.10679497484299    7.70340440912324   16.81425983815604
H        14.49007076184809    9.39637571127347   17.60307902280059
H        12.41024897927280    8.69272643465142   18.70570010323373
H         8.68635023218214    3.32273617112018   16.96998830884991
H         6.56693634451277    2.43707088498027   16.09329315494320
H         4.42718309498390    3.07517410996258   17.13188879115182
H         4.39849581407788    4.61366469369917   19.05972936627978
H         6.53133237214987    5.51854431247204   19.96116662985420
H        10.55833780588434    1.46451470715293   18.29192606584725
H        12.21453822349758    1.90664255328878   18.68214856763638
H        11.65981102026647    1.97958628402961   17.00435608812640
H        10.42576683993301    5.00169600231202   15.38297130543578
H        11.56543374577215    3.66503243673757   15.59642589412091
H        12.09755463141654    5.33599592091366   15.82568141340135
H        10.55242428330250    8.83838836986389   23.56472008650466
H        10.72168567323684    9.67740228779148   22.02219616539260
H        10.57260053707936    7.90650058510940   22.03936529947799
H         9.47435543739753    6.89055488340504   24.02180548405857
H         7.84040705042498    6.27809252011328   24.21614568316595
H         8.22585440586331    7.92607024669057   24.77633282934359
H         6.28318218494934    8.29171402898934   21.69681626825905
H         6.24542734563345    8.47037100380363   23.46658873575862
H         6.12505033994317    6.85014645180619   22.73348674141544

