40
CSD_code = QELZOZ | q = 0 | S = 0 | Stoichiometry = C17H14N3O5V | MND = 7
C         6.30882348341309    6.22136503090413   13.67906271363358
H         5.36793014994594    6.62594185654430   14.02124791221030
C         6.53139631914525    4.85849371874946   13.75409374081940
H         5.77156137854105    4.21413872050828   14.17089679929236
C         7.72165189324839    4.31669183686168   13.29558602416159
H         7.88975918461630    3.25209040437357   13.36060478689336
C         8.69174447395712    5.14211734392596   12.75060324817815
H         9.61889935909107    4.72197827454772   12.39036240086682
C         8.47417030147545    6.50427179886403   12.66926493389919
H         9.21749614772300    7.16740165883159   12.25255253452755
C         7.28440295028211    7.05812503012394   13.13937333090020
C         7.11925911449309    8.52220522974735   13.03605987973248
C         5.22134572107939   11.56645372718235   10.85401094394358
H         4.65485864658403   11.25128205997932   11.72268937885630
C         4.62627177028888   12.23385096074377    9.78919660171590
H         3.56951250407363   12.44898812619098    9.79931403716903
C         5.42793587605329   12.62887173833932    8.73094567013048
H         5.00743701351159   13.16034780474750    7.88951174994676
C         6.78516852296781   12.35166027324341    8.77174038610310
H         7.43344147483089   12.68345444371509    7.97607231635704
C         7.29676655392747   11.68002049028936    9.88229531009717
C         8.72744123267722   11.39054481817909   10.07163350954958
C         9.64245226454890   11.34745635001818    9.01950510003140
H         9.31308893373494   11.49024976983049    8.00219823046193
C        10.97637780896401   11.10437199865465    9.29626052978662
H        11.70225190918780   11.06962009037570    8.49737110519015
C        11.35848168798538   10.91113911216179   10.61441465900077
H        12.38933461186052   10.73095450833819   10.87497438514039
C        10.38344857604755   10.95169749517946   11.60137910157484
H        10.61090400909279   10.80251206224021   12.65082445509368
N         6.50931515379720   11.29466952680446   10.88388719603939
N         9.11207902661309   11.17709460144475   11.32993654269732
N         6.25729436394351    9.14588371998561   13.81408282738630
O         7.76350051944541    9.19911671663693   12.19868933812593
O         6.11756490118647   10.47469506242390   13.66067721802357
O         8.70884247787204   10.86041948347732   13.90822124258277
O         7.92396648192888   12.92014043605564   12.42056125351586
O         6.90816536674604   12.70309443143709   13.23005515340646
V         7.69753447071560   11.20777519029330   12.80185761506652
H         5.77252336441282    8.74891409805447   14.61368583789861

