109
CSD_code = QEMLEZ | q = 1 | S = 0 | Stoichiometry = C47H53MnO4P3S(1+) | MND = 6
Mn        8.38898466645365   14.36177730806085    3.02933270350125
C         8.68034834327257   15.51398373853674    1.68646258501074
O         8.96399027092209   16.18647500208534    0.80898519384767
C         6.67631832440033   14.76847882032995    3.37311963025987
O         5.59336394269042   15.01312244980506    3.64088228011425
C         7.96766155122545   13.04114972017638    1.91397665695375
O         7.70928555910586   12.16690310824043    1.22524472799744
C         8.87434892172511   15.47018381920707    4.34508705808466
O         9.14981361545948   16.11414825702432    5.24377046143103
P        10.49932804677638   13.58012210590799    2.82086891510917
C        11.85223701363085   14.57425940874015    3.52250737697551
C        11.78299419214808   15.96476071040703    3.49952532217701
H        10.92277774006751   16.45824343031122    3.06205323443934
C        12.82177433770888   16.71403872660502    4.02055250739812
H        12.76563001403726   17.79180954399143    4.00199644356478
C        13.92866822391099   16.08285356539113    4.56496361664163
H        14.73406641345776   16.67036392392081    4.97817458373305
C        14.00602144591343   14.69938352639266    4.57486144873584
H        14.87222254845335   14.20788907897618    4.99208090970273
C        12.97546221532298   13.94219456749508    4.04919049873173
H        13.03549732696364   12.86284992385638    4.05691820384788
C        11.15040665079405   13.20214122809053    1.17313928366193
C        11.93910593100004   14.13559791706908    0.50355501550180
H        12.23698234769655   15.04806758284671    1.00121085582708
C        12.33735688363745   13.89123167613121   -0.79761420930395
H        12.94618947331366   14.61636408257997   -1.31557511563675
C        11.94831042933732   12.72688594251082   -1.44018147120527
H        12.25441853962720   12.54507924674760   -2.45901212565402
C        11.16279590728069   11.79694778629032   -0.77677709244925
H        10.85185567660653   10.89344117029118   -1.28162049239487
C        10.76005663810743   12.03379430489306    0.52358438557764
H        10.14259142683395   11.31911115398447    1.04833261949320
P         8.64465794087615   12.72634734740635    4.54622842580599
C         9.01014148620589   13.22513161023081    6.24963234980344
C         7.93493026543820   13.42062890067498    7.11623474491644
H         6.92859406702001   13.20753680090101    6.77730539335888
C         8.16626293348353   13.89121227166001    8.39364249845273
H         7.33688083209115   14.04639452527677    9.06686603913685
C         9.46017717131841   14.17399866192740    8.80639208468787
H         9.63599283960501   14.54571192431238    9.80423114310861
C        10.52628744204989   13.99012824332192    7.94121977418765
H        11.53203590309051   14.21831568869314    8.26092293804210
C        10.30501057313172   13.52306278544469    6.65849055082211
H        11.13566626933697   13.38932462220563    5.97553248728975
C         7.46126799506365   11.38664179901312    4.83560651193003
C         7.81417471509879   10.39303589970985    5.74855314574864
H         8.76755376902778   10.45531090243200    6.25847616763453
C         6.93622024718775    9.35913120269289    6.01302081421996
H         7.20577286149984    8.59081406470989    6.72340097724995
C         5.70068859168176    9.32053200553906    5.38260068041771
H         5.01047835546948    8.51997563754509    5.60148526910769
C         5.34569104111125   10.31161196754480    4.48132635149712
H         4.38034537701362   10.28403900627414    3.99938901150277
C         6.22513450751357   11.34418408119222    4.20200454867215
H         5.94738865187200   12.12614917899536    3.50595276261703
C        10.03167505715441   12.04836321426703    3.63452652567680
S        11.19013548241502   11.04284777326664    4.58878062195797
P        11.29282296410693    9.15960623374592    3.72330891672287
C         9.61906103086499    8.41945965807787    3.38604604375345
H         9.04972305490553    8.60550738099377    4.30785556458419
C         8.90198265261875    9.12879733662024    2.23870667207329
H         9.45030985596827    8.98380310108836    1.30465895159261
H         8.83624973174372   10.19867740649809    2.45223172905643
C         7.49379442907348    8.56182132927240    2.07125389450480
H         7.00435183410320    9.06451930611796    1.23631485270199
H         6.91271852916343    8.76747751040101    2.97177010206635
C         7.54040220407728    7.05760073391807    1.82875351418121
H         6.52666307051317    6.66631369586330    1.74284725390910
H         8.05773511512270    6.85048108418623    0.88948031165695
C         8.26807757028678    6.36363550911790    2.97512211251379
H         8.31590001768705    5.28915318350426    2.79373401227060
H         7.71904131170837    6.52361857216006    3.90584701998772
C         9.68621438414361    6.91580538090689    3.11824692855804
H        10.22879880814490    6.73100609004198    2.18875392961927
H        10.20159312747620    6.39432670897331    3.92692231168637
C        12.09977787447695    8.17765364985998    5.06880382082627
H        12.29260514182932    7.18313533331590    4.64785660540793
C        11.16512779300578    8.04925472499055    6.27467981372057
H        10.21498015419730    7.59608135730810    5.98517525998688
H        10.96258355446126    9.04377482785162    6.67971771082751
C        11.82360576887311    7.19247779686886    7.35487521881808
H        11.15367630164909    7.11517589663758    8.21209921812261
H        11.98909941641172    6.18415954844333    6.96854682154388
C        13.15477227517184    7.79845106378507    7.78515951761582
H        13.62345301914828    7.16486158554946    8.53820669712256
H        12.98104613626946    8.77911085263385    8.23276396672532
C        14.08017332997959    7.94517862495776    6.58267623716587
H        14.30660244550922    6.95797608877825    6.17320244908475
H        15.02135580336929    8.40344433667869    6.88853720578478
C        13.42547992863481    8.80641748445948    5.50421628111343
H        14.10619633569824    8.90230970139013    4.65659106896243
H        13.23782031624729    9.80548299138667    5.90431967922053
C        12.33474193406272    9.15982718058931    2.17514284658321
H        11.62286264116294    9.27998671607858    1.34867658877488
C        13.29611813972525   10.34913249543624    2.14732955774240
H        12.73741835856507   11.28393740014893    2.24732834291541
H        14.00110137634721   10.28531211392507    2.97875474349531
C        14.06707052815164   10.36680505185203    0.83000167408991
H        13.36805961582843   10.52652141962890    0.00635254295581
H        14.76738298283452   11.20304272149385    0.83542876850026
C        14.81441233162684    9.05407144267513    0.61978709568432
H        15.33546915294947    9.07647274716580   -0.33734015881315
H        15.56396788449619    8.92818873427343    1.40398599457318
C        13.84124180488449    7.88055673150585    0.65166519887187
H        14.38109103132894    6.94252415592030    0.51692936160626
H        13.12669198880226    7.97630294001912   -0.16871050128727
C        13.09295320358453    7.84498822999046    1.98390797922084
H        12.40778652726822    6.99534273010814    1.99854283196439
H        13.81820621804723    7.70904816061140    2.78791761012845

