70
CSD_code = QEMMIH | q = 0 | S = 0 | Stoichiometry = C24H35BN6O2SiW | MND = 6
W         4.43823797290269    5.05107736402287   13.17945144607554
Si        8.05745612318443    6.75050873531985   15.83787884469130
O         2.57890980740391    4.25614744908482   15.54676675249650
O         2.59901109308358    7.55528538018224   13.42702565494162
N         3.52563863600797    4.00942465743585   11.46988920184706
N         4.27413677968595    3.41956823554147   10.52215709242430
N         5.71446217841194    3.28370444403159   13.10802773008412
N         6.20603648696027    2.80654256928668   11.95126167499667
N         5.76169530184069    5.74667884220359   11.59102646600012
N         6.24507790408226    4.91971891632133   10.64829359401960
C         5.05012281114785    5.94620668317119   14.75566923289647
C         5.17391893739799    6.58756670444933   15.96956510412521
H         4.22343291744341    6.78489860871673   16.47429710803667
C         6.32483835865331    6.97324238897982   16.58238251513416
C         3.23588587820152    4.42265173745778   14.60626134167771
C         3.25896376787066    6.63052550996554   13.20180845698236
C         6.25682641269795    7.64347510702987   17.91978321114404
H         6.75486805329263    7.03120859017544   18.67112384483297
H         5.22822398103552    7.81076871729010   18.23394753829022
H         6.77436239643343    8.60158698715064   17.88944854198136
C         8.20086395675091    5.49954794410144   14.40989742679777
H         8.29983583895627    4.48368678166782   14.77958353303718
H         9.07480087737499    5.71395179705813   13.80135214794272
H         7.32503134487329    5.53191909968559   13.76592080573125
C         9.22287946738797    6.17451978130258   17.24184514884032
H         9.31986032809384    6.93001648275072   18.01483859636836
H        10.21837279998620    5.97425444957877   16.85798781537486
H         8.86593664107255    5.26354611054246   17.71339958434662
C         8.65303889181940    8.46522133581285   15.22855514238225
H         8.02215058088551    8.84882954869218   14.43318894515057
H         9.66800787295571    8.40958035359936   14.84662508950534
H         8.64811661786073    9.19565959436545   16.03200076474621
C         2.24587827664227    3.83264633002588   11.15229550310393
C         2.16833048694397    3.10657039475017    9.96134076321239
H         1.28212483673677    2.80197281340987    9.44250308329935
C         3.47916697300750    2.86166839250645    9.59013681488145
C         1.13198094285008    4.35704225987376   11.98645703981570
H         1.20008299178596    3.96861395839572   13.00325122446757
H         0.17750666041873    4.06291453357952   11.55684070909723
H         1.17456040735782    5.44535396974008   12.04223864883188
C         3.98140213684801    2.12802578107176    8.39938498257807
H         4.60549234927338    2.77334763407521    7.78312146482748
H         3.13955267493684    1.78207784172266    7.80557838701206
H         4.57802430187999    1.26779377066503    8.69904171342339
C         6.19060575746814    2.52990730345391   14.09657967695543
C         7.01738336104482    1.54035672331487   13.55745881420515
H         7.55111784471725    0.77949610918276   14.09005420457617
C         7.00108872426360    1.74573515307285   12.19007618601507
C         5.84662642750277    2.75910674201324   15.52475845980289
H         5.92409641225460    3.81965928143000   15.76695407420512
H         6.51536138199491    2.18710577702503   16.16352799923612
H         4.82168836445807    2.44352719237077   15.72292802694040
C         7.70648679509450    0.97867936353563   11.13043029979719
H         6.99566656591499    0.53618228812997   10.43424783015958
H         8.29081715756455    0.18435899169555   11.58708969366854
H         8.37418008767428    1.62643126982628   10.56465179184780
C         6.27581083403588    6.95625610944547   11.37758019829348
C         7.11860621644046    6.90271516946930   10.26431801417644
H         7.68204612480444    7.70754266909959    9.83779250887332
C         7.07191558864791    5.59204119399434    9.82481583026520
C         5.94827498763400    8.13045760993726   12.22853908482361
H         4.95095270478488    8.50350234075514   11.99212023320427
H         6.66618624455742    8.92754423753132   12.05074754213038
H         5.96000760260353    7.84845921169288   13.28266494916950
C         7.77756892078168    4.97639812056720    8.67085868538700
H         8.41770425816323    4.15987266366092    9.00102694567736
H         8.39041073931480    5.72702318662958    8.17904726545530
H         7.06571685504082    4.57661352779753    7.95031792369976
B         5.81036807813615    3.44624201870078   10.61128720313412
H         6.30020791066473    2.87753715887922    9.70237587084947

