61
CSD_code = QEMNIF | q = 0 | S = 0 | Stoichiometry = C23H32NO3PTi | MND = 8
Ti        2.45900258867699    0.30678508697099    2.80698826846895
P         2.33147687366471   -0.21384027535657    6.02691494527428
N         2.64705864916781    0.30391091493265    4.61414450476070
O         1.50281629653717   -2.60196865689994    5.30373120778025
O         2.45175905043167   -3.77841412582995    7.08384095894965
O         3.25923264241148   -1.81938453968386    8.06550622492511
C         2.19990760567376    1.57054995060173    0.81452010035914
H         2.50588867497206    1.25085830445392   -0.17474198719088
C         0.91631044611391    1.41220934950219    1.36825157989018
H         0.06059313877235    0.97193586275438    0.86915868548947
C         0.88856250933932    2.08984904034947    2.60559356649062
H         0.00595859731182    2.24432698070921    3.21861498100164
C         2.15371691627454    2.67456378743413    2.80906587355818
H         2.42726349407861    3.34442284384726    3.61685166114839
C         2.96607057957584    2.34770569986761    1.70552887858046
H         3.96255533201559    2.73194522066598    1.51986897197448
C        -0.26862317242497   -1.04038291342614    5.54009843045374
H        -0.02220494861847   -0.58336293271602    4.57395475516064
H        -0.71058645005377   -0.29360634286132    6.19828838726356
H        -0.97231257853504   -1.85482752595928    5.38202272294223
C         1.02238747939557   -1.56139371940910    6.14992123118175
C         0.87294227381670   -2.05523280445614    7.58260218365420
H         0.64834845778127   -1.22250077770656    8.24912055964890
H         0.07080600882597   -2.79559715715592    7.63762092268196
C         2.18770774028923   -2.73740050000670    8.00057157164590
C         2.07988036752580   -3.36735435955312    9.38646832468475
H         1.82906376023647   -2.60274920544423   10.11486347520199
H         3.03624651105424   -3.81198350651966    9.64329015233734
H         1.31705984549960   -4.13854243419660    9.37461232607438
C         4.91729319950162   -0.43123956609471    7.02465579869734
H         4.75103858503562    0.29224529973823    7.81971437987642
H         5.11754708777853    0.10017209357164    6.09267479841199
H         5.77010322149554   -1.05444499149996    7.28592448973999
C         3.66901793812646   -1.27338644932599    6.81807873769213
C         3.88864272962559   -2.37424657426004    5.78295454095391
H         4.01192821074542   -1.91040403238781    4.79770413376704
H         4.76307173296046   -2.97736663983991    6.03779726235802
C         2.65017621904407   -3.28211813623302    5.77347972462274
C         2.84315661127449   -4.48480384921200    4.85484354030165
H         3.07510130544237   -4.13490362131993    3.85351011482463
H         1.92493543550627   -5.06360040786262    4.83489283200363
H         3.64985772142321   -5.10327722414056    5.23408802851258
C         1.85394287620127    1.07531269061522    7.23548904033751
C         1.25407059848199    2.19392826577070    6.66650937102791
H         1.12601246538478    2.20829736830733    5.59050902981455
C         0.85291884218174    3.25261389128179    7.45933895727383
H         0.38352771293999    4.11804798352957    7.01431493033496
C         1.06060098426841    3.20213827817837    8.82882192701341
H         0.75235585979859    4.02803598027402    9.45303513469179
C         1.67082947118086    2.09601358672480    9.39778433911270
H         1.84063526755713    2.06386370850025   10.46447176611195
C         2.06826544269365    1.03007349428120    8.60868805085356
H         2.54846015325292    0.17208379922025    9.05548406642795
C         1.49379557991395   -1.43808605291245    2.23092054870403
H         0.39922711081742   -1.33274379272537    2.22451785660534
H         1.72485725799381   -2.29851105776123    2.86692766626088
H         1.80488819762136   -1.68945005330735    1.20443637518405
C         4.38141986352053   -0.34651683098219    2.31315828568202
H         5.13585580569850    0.27270611109814    2.82083606403193
H         4.54337884222053   -0.25044974036790    1.23092463735895
H         4.58179898050047   -1.39290479576841    2.57744010701687

