29
CSD_code = QEMNAY | q = 0 | S = 0 | Stoichiometry = C15H10CrO3 | MND = 9
Cr        0.50286956396951    3.09197672047774    3.80933301788959
O        -0.53251121389918    2.82948713659304    6.58413861799027
O         2.35239166057404    4.94424770109723    5.22863880232304
O         2.34735679238839    1.01840703486993    4.88402749601470
C        -0.17887953938956    2.93776137532016    5.48907154717508
C         1.64033355057696    4.25118824797215    4.64156626489652
C         1.64378760978821    1.81797293922873    4.43612217973428
C        -0.38532054914381    4.60333202326576    2.37276402146951
H        -0.52257351963542    5.67615209342265    2.44333842069381
C        -1.38891255762275    3.74131151843637    2.81202169245034
H        -2.29766979826799    4.15916238210151    3.23115364874381
C        -1.30651989184966    2.32865655988351    2.65479342499521
H        -2.14185520259214    1.70483432583906    2.95130525029022
C        -0.16678156297766    1.79581120133197    2.07597170732754
C         0.81706157096214    2.68264822076311    1.55623879875680
C         0.74501975474435    4.08787378212509    1.66256221226435
C         1.78560898768895    4.80921429620726    1.03916430045844
H         1.78004319700506    5.88939720437350    1.07200062551726
C         2.79657379230274    4.13959429249740    0.39016293210121
H         3.58428241550010    4.70979470842646   -0.07938135828867
C         2.84953830588450    2.73560287643627    0.30660330865156
H         3.66615765588633    2.26085295690295   -0.21534722919803
C         1.85026895802257    2.00288296447762    0.89190725417887
C         1.59844103380924    0.52362157606386    0.99894110715904
H         2.36931687948090    0.06526871435966    1.62234225565489
H         1.63016143812527    0.03635969857416    0.02321215125529
C         0.20386769739066    0.39355154455455    1.66649525792796
H        -0.53214079508848    0.00335627106785    0.95708702062260
H         0.22928376636666   -0.28432036666963    2.52106527094467

