49
CSD_code = QEMPUU | q = 0 | S = 0 | Stoichiometry = C18H14Cl2F10PtS4 | MND = 4
Pt        7.59782683102283    0.00028209636940    0.00002813521744
Cl        5.86006387063208    1.16780186325792    1.00917967598187
S         5.90295475395586   -0.94900604400289   -1.38375930218745
C         5.04185641216507   -1.87554191492495   -0.06900256287946
H         4.53751619934049   -1.10761624861008    0.52072232139619
H         4.29308021262644   -2.51175227141036   -0.54148632924375
C         5.99925296565052   -2.67467291811387    0.79304997675458
H         6.87926825178952   -2.07828921959038    1.06515398606767
H         6.32719828089109   -3.58998374981127    0.30196508968920
S         5.14945248903568   -3.24415880895809    2.30410542134141
C         4.86791259899532   -1.69888050126997    3.12721287994157
C         5.88622266951712   -0.81120194537563    3.46924846524405
F         7.15264878703544   -1.06552473913712    3.12462689653224
C         5.61550596139172    0.34677963821796    4.18771240019948
F         6.61354877679629    1.15789151884647    4.54392289341019
C         4.31322759334528    0.64921826317261    4.56776499316376
F         4.05919154501927    1.75725802701890    5.26096112621770
C         3.28160405070568   -0.22260720388139    4.23133618272493
F         2.02779041233039    0.05455360850126    4.58928240265676
C         3.56801136965412   -1.38332211274646    3.52412424772847
F         2.57014288255976   -2.21129331127321    3.20969039154039
C         6.56220747902792   -2.34179209534363   -2.34331165163417
H         5.79357799815233   -3.10586908189768   -2.39894892755049
H         7.47453947310269   -2.72534497666225   -1.89868674539255
H         6.77443834364332   -1.96500663339842   -3.33724177959594
Cl        9.33611052907487   -1.16784976708410   -1.00849480062493
S         9.29278791716420    0.94991611978890    1.38351045347220
C        10.15422039715033    1.87638005985923    0.06891422766919
H        10.65887764161445    1.10853700669995   -0.52065892115673
H        10.90270913555188    2.51283648189422    0.54153051137014
C         9.19662457118911    2.67510557124506   -0.79328255652226
H         8.31664582828774    2.07855524810026   -1.06513079651074
H         8.86865326066210    3.59058921973299   -0.30255216216632
S        10.04642027035130    3.24392469254987   -2.30458245304770
C        10.32761560187145    1.69841741494849   -3.12738790534222
C         9.30910036854330    0.81089319866819   -3.46922209916439
F         8.04275130348700    1.06551985032129   -3.12453380639217
C         9.57952803070270   -0.34724588788619   -4.18754850679344
F         8.58130874821648   -1.15821742910340   -4.54359136789003
C        10.88172465204567   -0.65002978544450   -4.56760942997365
F        11.13547485985821   -1.75823083787158   -5.26066436551145
C        11.91355897222950    0.22161378939328   -4.23134838335289
F        13.16729446326234   -0.05587113134052   -4.58932539680459
C        11.62743389160805    1.38250429457999   -3.52429694107599
F        12.62549818102891    2.21031351402389   -3.21006005178819
C         8.63365253886957    2.34243227119053    2.34344790370620
H         9.40325541515821    3.10554436629703    2.40070966735041
H         7.72240036044461    2.72735994371592    1.89764756555266
H         8.41951285329640    1.96508055669228    3.33687942766698

