118
CSD_code = QEMTUX | q = 0 | S = 0 | Stoichiometry = C45H63N7Si2Ti | MND = 5
Ti       -9.07803784010966   -9.58568401274778   -3.12467610497689
Si       -8.73482694198415  -11.82293041808057   -0.74591499054887
Si       -9.21429748948183   -6.37321338210846   -3.89162981009026
N        -7.05579267695895  -10.43486543267396   -3.27618948926514
N        -8.57132725298372  -10.22826944171118   -1.34046332373054
N        -8.49872613100007   -7.77144429208548   -3.17009879254653
N       -10.99661585438856   -9.44706897808200   -3.00673194828395
N        -9.31212092028370  -10.20123815374270   -4.93280889191813
N       -12.89444932048965  -10.03425713310916   -4.24441852313766
N       -11.37565047458012  -10.84118194252504   -7.57677202277084
C        -6.61662078199912   -8.66458350678000   -1.69610144331025
C        -7.63250209224566   -9.34460067022806   -0.71664066196053
H        -7.03123718590285   -9.87425294506479    0.03830027053365
H        -8.15029709084261   -8.52206276139848   -0.19475778868402
C        -7.28479827627520   -7.48830090891728   -2.44527883396581
H        -7.47417822011833   -6.71098885362067   -1.68489238694126
H        -6.52176971792965   -7.07347482634162   -3.12913303961201
C       -11.61701397270686   -9.89683048123040   -4.12217603974587
C       -10.68912916444472  -10.21513938900343   -5.23435623311126
C       -11.12684117036595  -10.39986503472269   -6.46776945318030
C       -11.60906162151038  -10.12491909393282   -8.80050026474402
H       -10.91192742016333   -9.28614417532877   -8.92528581506707
H       -12.63068389660446   -9.72343525306282   -8.76384946340478
C        -5.49438142883160   -8.05920039905546   -0.84161242706082
H        -5.92655019186320   -7.38912976454034   -0.10118682689584
H        -4.80304820641207   -7.48151320204461   -1.45188859709495
H        -4.94416435010416   -8.83266418167923   -0.31041116074509
C        -6.11418636196315   -9.72807612711248   -2.63335699048596
C        -4.76443407530140  -10.06450920648587   -2.74646559599092
H        -4.00686782534313   -9.46423777614890   -2.27172491271315
C        -4.38868203823943  -11.16972406455315   -3.48682840489392
H        -3.34546146986802  -11.42090083477849   -3.60657048684679
C        -5.38331740032298  -11.96878598300558   -4.03144719842055
H        -5.14854969470991  -12.87806855338384   -4.56064980393723
C        -6.69580787452326  -11.55845454182029   -3.89760792170106
H        -7.49448676128895  -12.16787927112623   -4.29680186499435
C        -9.79127505693006  -12.72681751497016   -2.05368468785461
H        -9.19931318811150  -13.43788037103922   -2.62240010337057
H       -10.21573120235441  -11.98809802409973   -2.73888558381939
H       -10.60794576124598  -13.27954086584174   -1.60141482003793
C        -9.57666644006583  -11.90343740640130    0.98210592093073
H        -9.01503783217257  -11.33101392466259    1.71530933500936
H        -9.62731051605321  -12.92678284722952    1.34037357639634
H       -10.58919275711706  -11.51145942343522    0.97049131516199
C        -7.06565584498634  -12.75491094829282   -0.51443424522406
H        -6.46885459096647  -12.29243904545985    0.26665021231989
H        -6.46805090736873  -12.75850962264590   -1.42236568733337
H        -7.22728850852747  -13.78760332067152   -0.22314056905822
C        -7.88705362135344   -5.25742914224504   -4.73473791446121
H        -7.28874287398906   -4.73437767565968   -3.99451218629009
H        -8.35893581357561   -4.50207621728954   -5.35482201578679
H        -7.20790622129908   -5.81895792335024   -5.36826091725073
C       -10.01712255258712   -5.17190991515977   -2.61356153203549
H        -9.31356273995205   -4.90742349381106   -1.82798334550024
H       -10.89941417405000   -5.58314041212052   -2.13458499478538
H       -10.31358481415610   -4.24791639166923   -3.10035802507929
C       -10.46982636144728   -6.90196303669297   -5.21765024598272
H       -10.00948377225467   -7.52646406683715   -5.97744355632338
H       -10.89012842143323   -6.03018195719134   -5.70802372217638
H       -11.28451560491322   -7.46318373566171   -4.77615420525428
C       -11.84498857068572   -9.03893172644713   -1.87898504680859
C       -10.95142489145113   -8.44072281903851   -0.78423167581504
H       -10.38864969353578   -9.23052961714139   -0.29182417190053
H       -11.56631360349210   -7.93422433467486   -0.04159012599915
H       -10.26027651844741   -7.72222992881108   -1.22964013363657
C       -12.59774017809404  -10.25126868380854   -1.30644614302210
H       -13.28604479222301  -10.63712229864834   -2.05307076903672
H       -13.16080986373469   -9.95775393988143   -0.42321300355364
H       -11.88963242443366  -11.03201113103860   -1.03484588869610
C       -12.86630006152478   -7.96641538982339   -2.29759652499208
H       -13.56400502050078   -8.38547308998797   -3.01519318417497
H       -12.35854230177774   -7.11763597730958   -2.74945152848267
H       -13.42083087233942   -7.62664081023663   -1.42556435436390
C        -8.51213714106693  -10.75625767524228   -5.94728083263485
C        -8.74838332927641  -12.06234104823882   -6.44265587777782
C        -7.97453559866431  -12.56176697788616   -7.47692013090041
H        -8.18321811276773  -13.55525479215068   -7.84802888352819
C        -6.94319169086818  -11.82584656139879   -8.02974486031455
H        -6.35345841045065  -12.22911343900144   -8.83906218005971
C        -6.67371287954589  -10.57234816662914   -7.51851283847813
H        -5.86181326092069   -9.98612413679336   -7.92706735012895
C        -7.43969503798344  -10.02767717343009   -6.49772274957268
C        -9.77819790394985  -12.97386408281960   -5.83909569356573
H        -9.41640791808015  -14.00187129647093   -5.85747361517317
H       -10.70727095982182  -12.93237018442164   -6.40471028111812
H        -9.99641966783933  -12.69323740391968   -4.81084244884857
C        -7.10598443231957   -8.63966795975633   -6.03211179381585
H        -7.59746529069391   -8.42490183068946   -5.08301245526916
H        -7.44314097362069   -7.91251087268962   -6.77277604593516
H        -6.02618738534826   -8.52826222699055   -5.92442298610283
C       -13.52458865487063  -10.56321524728924   -5.35003330508993
C       -13.72884884011313  -11.95108033856766   -5.44371609810077
C       -14.44795685391976  -12.46228000504505   -6.50989290303069
H       -14.58740837588446  -13.53253944057220   -6.58460863368157
C       -14.99213314200338  -11.62976518331111   -7.47125202629868
H       -15.54950399017505  -12.04187334597887   -8.29996815940659
C       -14.82484304794341  -10.26118240399216   -7.35639320913006
H       -15.26526748985445   -9.60373861530677   -8.09507586361921
C       -14.10214494956250   -9.71385089848171   -6.31005614890924
C       -13.19924867247687  -12.87110475256222   -4.38254691918037
H       -13.93896549239148  -12.98497684914740   -3.58814624550117
H       -12.29338423151034  -12.46932600247860   -3.93569130861123
H       -12.98859030951960  -13.85551324057547   -4.79504369503059
C       -13.91872794061908   -8.22853818326232   -6.20473935060307
H       -14.19136176067986   -7.88252696631997   -5.20915100123008
H       -14.53440058833221   -7.71193997654095   -6.93836947866360
H       -12.87575792450236   -7.96011812555589   -6.37296847739846
C       -11.49634479171015  -11.09510200944163   -9.94431873832240
C       -10.74018636467364  -10.80551625972873  -11.06977208092239
H       -10.21411853217147   -9.86320802634325  -11.13520175375469
C       -10.65630724010575  -11.71611076037442  -12.10943625149307
H       -10.06687519422037  -11.48075281275173  -12.98398305956343
C       -11.32148351462985  -12.92676146580511  -12.02758486993706
H       -11.25389892804280  -13.63750320565246  -12.83852657876220
C       -12.07181305437523  -13.22443613004478  -10.90162207656230
H       -12.59063943928405  -14.16979778682483  -10.83360934255506
C       -12.16030202920285  -12.31327663954393   -9.86601881005003
H       -12.74077709268663  -12.53367747847018   -8.98259480083658

