121
CSD_code = QEMTOR | q = 0 | S = 0 | Stoichiometry = C44H67N7Si2Ti | MND = 5
Ti       -5.66332208214372    0.42727894260085   -4.87443896125275
Si       -4.92036876018066    0.41219319329885   -8.07899259150210
Si       -5.25391264028841   -1.06086404951992   -1.95072648586369
N        -4.18949538486806    2.03831079825583   -5.23446367401944
N        -4.62161145385008   -0.06299260572134   -6.46430087397765
N        -4.69674604130430   -0.32678482126919   -3.41237417222063
N        -7.22585522001284   -0.68907492965747   -5.01965279027908
N        -6.81356104690489    1.82624883200795   -4.22557349231464
N        -9.55549129512020   -0.50481681754751   -4.84922445656592
N        -9.87518826973046    2.90930674179121   -3.24342456822425
C        -2.67146979122450    0.19771411020097   -4.87419022007090
C        -3.31173010995131   -0.52163053924164   -6.10901891744064
H        -2.60700432155737   -0.39172188580237   -6.94475910894201
H        -3.32226644630609   -1.59710001516862   -5.86367450817191
C        -3.26215060314069   -0.35209081584149   -3.55529450336889
H        -2.89414696359122   -1.38876662842331   -3.46567183948924
H        -2.78830959187056    0.21670838015498   -2.73408440079259
C        -8.36468726520832   -0.02382457909516   -4.71180230866815
C        -8.13830345288945    1.33728984389372   -4.17676059522804
C        -9.10094125524245    2.03865405948452   -3.60217290481248
C        -1.17735826168217   -0.15371796994754   -4.86592294001555
H        -1.06178764518541   -1.23568603996659   -4.87109017785644
H        -0.68758752119081    0.23047176532496   -3.97336422901903
H        -0.67617872262074    0.23905972108723   -5.74780414041540
C        -2.91419535439333    1.67284207563631   -5.03510636769103
C        -1.88109537768788    2.60869116364875   -5.10335080240978
H        -0.86495802204341    2.32153526999873   -4.89226140623822
C        -2.16051425638533    3.92236787373425   -5.42989993731260
H        -1.37338105416239    4.66098829033738   -5.45486286260231
C        -3.46456571412042    4.25538196087234   -5.76580709994433
H        -3.72579820452145    5.24913887285115   -6.09184080326114
C        -4.43656308583423    3.27996743922574   -5.65329183334046
H        -5.45840667516841    3.50447950243516   -5.92459536807103
C        -4.88925819907609   -1.06126737298184   -9.31567009866858
H        -3.93093783305939   -1.57267018673089   -9.28711291006367
H        -5.04213913034358   -0.71689733934605  -10.33360060003031
H        -5.65731101180350   -1.79857456251064   -9.10198079378798
C        -6.64581664823271    1.22597290981865   -8.04522145746686
H        -6.58055351372730    2.30144087258018   -8.18115100112743
H        -7.11950634034737    1.01534012530181   -7.08290489370329
H        -7.28847171602344    0.84283678596600   -8.83071712741171
C        -3.63801707190899    1.66535354421241   -8.78233066786963
H        -3.56496601624023    2.56241428542022   -8.17279409938754
H        -3.89788474228208    1.97268883546740   -9.79001081015941
H        -2.64726327384532    1.22203098598260   -8.82874326892467
C        -7.05421114736987   -0.54438851663536   -1.62999402279167
H        -7.70657205845554   -0.92325990781726   -2.40755593801477
H        -7.15855323280592    0.53577594172366   -1.60670644551824
H        -7.39906600964593   -0.93802390638015   -0.67952334172781
C        -4.18889935351778   -0.51939069218286   -0.43703092125947
H        -3.21781950067824   -1.00557832413050   -0.45002059476680
H        -4.67299755461172   -0.79891534852496    0.49313805412749
H        -4.01870181446410    0.55193266478550   -0.40466686325045
C        -5.06408590285941   -2.98036521372780   -1.92375390622001
H        -4.04343270112356   -3.27710795119966   -2.15231276135500
H        -5.71514444240188   -3.48542682462708   -2.62947273473809
H        -5.29487218889220   -3.36715555554183   -0.93593546740137
C        -7.35994587576930   -2.06977108317375   -5.50263826289028
C        -8.08349489921759   -2.09620417241216   -6.85915941367144
H        -9.09979524592603   -1.73363066378701   -6.73423350629774
H        -8.11402528045923   -3.11226782064199   -7.24648202061658
H        -7.56058536275040   -1.45914071597708   -7.57008816014407
C        -8.13561937611541   -2.94625887292101   -4.50328700309452
H        -7.65191604135866   -2.92765556366844   -3.52967489485742
H        -8.16957162395343   -3.97209622128880   -4.86370839615874
H        -9.15031448208124   -2.57514047889092   -4.40264577307445
C        -5.95804033236415   -2.67013324658577   -5.67194599393184
H        -5.36416783067986   -2.46871399821867   -4.77810073625724
H        -5.46980165670335   -2.23325362759989   -6.54013940188133
H        -6.03319291311845   -3.74684989767584   -5.81776264496354
C        -6.71149323223934    3.19192881056592   -3.90954836869418
C        -5.86992587334270    3.63054760140238   -2.86838461683227
C        -5.81001452067496    4.97641928094460   -2.53589648807187
H        -5.16472697006543    5.28248787801604   -1.72358596262100
C        -6.56856725284352    5.91724035745920   -3.20349023961772
H        -6.52728387279454    6.95875382595444   -2.92146526665399
C        -7.37137197888164    5.50283396155967   -4.25019942801945
H        -7.95052393912526    6.22975543918295   -4.80234671070520
C        -7.44768105085595    4.17078496261014   -4.62155001703313
C        -5.04190671590687    2.66869921119733   -2.06685474795956
H        -4.06292558990823    3.10056284542443   -1.85636429249896
H        -4.92511288413442    1.72588200523260   -2.60218896139185
H        -5.52939739912737    2.46658606278931   -1.11135223432234
C        -8.27273893800437    3.82518833413452   -5.82732772422375
H        -8.22335353099804    4.63553188136624   -6.55459234877254
H        -9.31582232228835    3.67962926124556   -5.55156660831827
H        -7.91633708724752    2.90829573481296   -6.29225229940946
C       -10.70614736164949    0.21461051539999   -4.60113590752656
C       -11.27232880461644    1.00183464627200   -5.61906663126939
C       -12.46828029569673    1.65657497931124   -5.38550801710944
H       -12.89157384347396    2.27480756184702   -6.16554362230967
C       -13.12801982933183    1.52937797967000   -4.17660217622792
H       -14.05820479177601    2.05168304027395   -4.00580489681166
C       -12.59426451661810    0.71588027045504   -3.19327167681530
H       -13.11831439705074    0.59330665027480   -2.25420119456366
C       -11.39676122408988    0.05014007379058   -3.38857467419030
C       -10.59786802134112    1.10438837756058   -6.95561622940075
H       -10.92879261367035    1.99319952623656   -7.48815907367443
H       -10.84110089265888    0.22981897280335   -7.56137472005306
H        -9.51669023329426    1.13620562900514   -6.84423620975696
C       -10.83214385865607   -0.83836446137925   -2.32046780769331
H       -11.49935834962109   -0.88105860452982   -1.46215801817296
H        -9.86022593868691   -0.47237343312408   -1.99281782729414
H       -10.68957257371343   -1.84736560625804   -2.70568817614766
C       -10.30639147673071    3.23666522824333   -1.91288335334817
H       -11.29556748892114    2.77995164543126   -1.77643262424001
C        -9.35137828649060    2.73882704008349   -0.82629660545704
H        -8.35529916255719    3.14033515136566   -1.03521230455069
H        -9.29296009612770    1.64916509697993   -0.86791436718631
C        -9.81863569918029    3.19246237582545    0.55227865595623
H       -10.79210861650359    2.74592663410104    0.76887923024516
H        -9.11513472822662    2.84583429928319    1.31264083265868
C        -9.93686218210298    4.71262555197469    0.60373651566295
H       -10.28067415997317    5.02671010933947    1.59171980752936
H        -8.95401666998487    5.15733556768888    0.43119277092351
C       -10.90607071915754    5.20372169690685   -0.46716866182557
H       -10.97811605738186    6.29277673877203   -0.43462721305032
H       -11.90041289544869    4.79566258035294   -0.27067712675376
C       -10.44003337797509    4.76023591716349   -1.84918733864793
H       -11.14339855496109    5.08758052767579   -2.61602657591458
H        -9.46610490932995    5.20198424160762   -2.07419024710996

