52
CSD_code = QEMVIN | q = 0 | S = 0 | Stoichiometry = C21H27ClP2Ru | MND = 8
Ru        4.15258398174599    4.63706090629946   -1.20494862962604
Cl        3.11759367877547    2.74523010566113   -2.19506339500778
P         3.56130347939987    3.80411864076138    0.81428820936030
P         2.21241176267344    5.75336035349133   -1.57112441792378
C         5.97906684289160    4.27241318953817   -2.49423630440430
H         6.14071708821752    3.43483711741318   -3.16038663802081
C         5.38947192305586    5.50612843200577   -2.85218509568269
H         5.10339097714856    5.80602696220518   -3.85153032501112
C         5.46510649661512    6.36578972159585   -1.71677539014021
H         5.22794769387963    7.42238745687421   -1.71299983247758
C         6.07274077477063    5.64929329391523   -0.66176553656061
H         6.40847487968967    6.06986742222746    0.27737825351218
C         6.38212830192292    4.33914521983304   -1.14276658224359
H         6.98918130595866    3.60636138425273   -0.62777362544091
C         2.53128175450983    2.29735466754769    0.90605231377929
H         2.34895485272824    2.01354613755280    1.94289416964364
H         3.07885396932124    1.50898325106916    0.38877258124355
H         1.59795412888108    2.45523417694522    0.36734227130292
C         4.96369647501222    3.26581557233173    1.87311848432980
H         4.59101088844498    2.92925622983984    2.84078073167636
H         5.66633603638524    4.08365362715889    2.01781827070276
H         5.46997281248478    2.44321004453145    1.36790311443931
C         2.72615403263734    4.95631534980324    1.95860965034800
C         3.41456277882129    6.12320092908114    2.28060838684023
H         4.39547876444244    6.28342561562675    1.85286730248794
C         2.85158541198444    7.06988620218171    3.11353336582688
H         3.39835771178443    7.96768343487552    3.36355101364790
C         1.57735392287767    6.86966806635464    3.62269476478549
H         1.13065696301011    7.60911721247682    4.27083824509038
C         0.87671280612460    5.72304113313878    3.29122405941927
H        -0.11994996672618    5.56916463518568    3.67937992431208
C         1.44594825000476    4.76838192822319    2.46416810873754
H         0.88699445347017    3.87860352302912    2.21588229048105
C         1.83002089248226    7.28527911121449   -0.63457036799571
H         0.97168370260315    7.78992750710161   -1.07706020491621
H         2.69198891690320    7.94916909477070   -0.62610143545136
H         1.60144024991800    7.00624777362081    0.39274674543370
C         0.61242972135672    4.88052104278333   -1.39538018592119
H        -0.19139218828383    5.47677801460217   -1.82770034139369
H         0.43240107084220    4.72384827213337   -0.33081185210038
H         0.68317151421568    3.91523188352770   -1.89498607551679
C         2.14437520412700    6.29794353782542   -3.30595651445986
C         2.31343180588408    7.62066971687621   -3.69887245562002
H         2.44172835079293    8.39874692810696   -2.96039580500464
C         2.32261638816154    7.94950801433381   -5.04379123493597
H         2.45275567602895    8.98026631644371   -5.34235460807733
C         2.17200379727558    6.96416234584820   -6.00435095414802
H         2.18252978039887    7.22573929758247   -7.05256772895343
C         2.02088674908363    5.64121089433355   -5.61816814292323
H         1.91783541482520    4.86798666760491   -6.36552250858238
C         2.01252754004734    5.30715021877350   -4.27747721832773
H         1.93203018040906    4.27325141947869   -3.96972885052027

