107
CSD_code = QEMWOV | q = 0 | S = 0 | Stoichiometry = C46H54Cl2O2P2Pt | MND = 4
Pt        4.48357941324452   10.47220693223678   -0.00009419534216
P         4.92550105072013    8.33112075550618    0.84649258991407
Cl        4.08709366680887   11.12206806223620    2.19236913298713
O         7.17820406976865    7.75095200982740    4.72874361013717
C         4.32986678881887    7.73733895457718    2.53803613323602
H         4.13582737485165    8.68339861105083    3.06207222488157
C         5.41848181769972    6.98618765151268    3.31098996016764
H         4.99342626663703    6.58304095656133    4.23396926356502
H         5.80653022511776    6.14206544337033    2.73443368725290
C         6.59854453750541    7.85534509256418    3.67801264572276
C         6.98833746566948    8.84180711586905    2.61317950416244
H         8.03353865002355    9.12801631483799    2.75217000217298
H         6.37295604161318    9.73686963570462    2.77077770633546
C         6.75047059202471    8.28055301513823    1.20762248805798
H         7.08117297590843    7.23618470096961    1.17554784713153
C         3.03206348550374    6.97567426630379    2.52542584895841
C         1.83981644278921    7.69074555100062    2.49820176463768
H         1.88087877887727    8.76895434400060    2.45579932158336
C         0.62063123637057    7.03923796769208    2.53830654230897
H        -0.29606750299079    7.60908407487979    2.53364511285255
C         0.56856131782370    5.65743393015886    2.60230008538820
H        -0.38287977410640    5.14789928500219    2.63080494984970
C         1.74750882558160    4.93594622963573    2.65136401092457
H         1.72131235481693    3.85841368875197    2.72343169887564
C         2.96761089345494    5.58897385257875    2.62656511267452
H         3.86634789939814    4.99745411150423    2.71183936969713
C         7.50358160620794    9.03824104900084    0.15282742393848
C         8.05142745037899    8.36679191134042   -0.93365969934178
H         7.89064919392342    7.30307021261630   -1.04269364525579
C         8.81529740477337    9.04259496958612   -1.86737172455673
H         9.22965204068516    8.50923493160334   -2.70994989891542
C         9.06588809826420   10.39379138151055   -1.70842451138192
H         9.68920344568642   10.91190739315556   -2.42206824270970
C         8.51355529592151   11.07410435456635   -0.63609961616351
H         8.70774016933031   12.12625735351995   -0.49543782608835
C         7.71256955558720   10.40806538778853    0.27361486269027
H         7.30121850386054   10.94934336710376    1.11329706240076
C         4.68145405686498    7.00686261481200   -0.42699634936994
H         5.27050178480681    7.37631363658495   -1.27937218870480
C         5.14384579708862    5.59106533057887   -0.09981789611961
H         6.19520067651028    5.57377012679851    0.19765093819439
H         4.54345145186040    5.18389692347510    0.71245009979426
C         4.95967924123496    4.70556017149454   -1.33230367229872
H         5.57396674400125    5.08828677095783   -2.15075828298193
H         5.29466807947142    3.69041289748438   -1.10731074999880
C         3.49672568091091    4.68870431595208   -1.76429354325983
H         3.37811652542808    4.05676685927207   -2.64636696423606
H         2.88709080389175    4.26455157099994   -0.96239016490162
C         3.01701749790512    6.10453940110256   -2.06771253369984
H         1.96318533358489    6.08884180736699   -2.35210713522868
H         3.58556153522785    6.51336269269481   -2.90563753436602
C         3.21018385760163    6.99900337945743   -0.84807576731517
H         2.58807534443535    6.63869190821853   -0.02586957457064
H         2.90323489184090    8.02147497634031   -1.08464299604298
P         4.04356696576399   12.61325937525799   -0.84650176734201
Cl        4.88197903249907    9.82274662870119   -2.19228293720921
O         1.79092961103686   13.19349049349104   -4.72884680000051
C         4.63914864485355   13.20716307488273   -2.53801867710114
H         4.83319776028424   12.26105990425346   -3.06200265793850
C         3.55059414480747   13.95831008849929   -3.31105176967935
H         3.97568056198503   14.36141989717391   -4.23402535425093
H         3.16253569237541   14.80243863626293   -2.73451407830172
C         2.37058943010934   13.08908002174387   -3.67810718927002
C         1.98069280986084   12.10272226854103   -2.61322017752897
H         0.93548448038928   11.81653780809776   -2.75223990046094
H         2.59604072057848   11.20763015601199   -2.77079278518254
C         2.21857220816575   12.66396074390883   -1.20765473817158
H         1.88785768397402   13.70832929388937   -1.17560902298323
C         5.93697612908333   13.96879231005602   -2.52541550814093
C         7.12921817192156   13.25369059904540   -2.49821900514211
H         7.08813353983155   12.17548420872267   -2.45584156054569
C         8.34840896427888   13.90518003411244   -2.53831026278776
H         9.26509795305867   13.33531638235779   -2.53368762257516
C         8.40050672049394   15.28698646886186   -2.60226210070667
H         9.35195617619691   15.79650316246783   -2.63076910954331
C         7.22156971377157   16.00849848611241   -2.65129000752918
H         7.24778567547986   17.08602873231608   -2.72334130175008
C         6.00145779426692   15.35548694587218   -2.62650453261318
H         5.10272943380566   15.94702536438142   -2.71176219682825
C         1.46542404265616   11.90630452843948   -0.15285109683561
C         0.91752050401043   12.57779803619171    0.93358981345882
H         1.07825050031057   13.64153334380886    1.04256842649899
C         0.15365401445600   11.90201793694931    1.86732906181982
H        -0.26070058972949   12.43540576948397    2.70989344208742
C        -0.09690580811461   10.55081296794998    1.70844060957361
H        -0.72017148213211   10.03270041906809    2.42213320941695
C         0.45539636428219    9.87048046657403    0.63611274459293
H         0.26122795944861    8.81831982227559    0.49549175469634
C         1.25639496571564   10.53649025746302   -0.27362160114178
H         1.66778476293911    9.99519107909741   -1.11326339548110
C         4.28749997736623   13.93763208357178    0.42694713968270
H         3.69843229683814   13.56822265002543    1.27934183547310
C         3.82519623004249   15.35347668383265    0.09983338915953
H         2.77384638119830   15.37082373743993   -0.19768887964207
H         4.42561959365194   15.76062154604836   -0.71242835948702
C         4.00933913732577   16.23899799537530    1.33230466344278
H         3.39500791477226   15.85627345962906    2.15072969708011
H         3.67442747414390   17.25415837275848    1.10732056342546
C         5.47228172861039   16.25572110826974    1.76434415024128
H         5.59089336864517   16.88764475256981    2.64643475161598
H         6.08197756440200   16.67986137138259    0.96248045538862
C         5.95194123066442   14.83987396586119    2.06778182881758
H         7.00575216481588   14.85551658404571    2.35222099752712
H         5.38332744876348   14.43105408069100    2.90566268156739
C         5.75874656004610   13.94547633914499    0.84810584546321
H         6.38089131548015   14.30577848656022    0.02592006701498
H         6.06567739929319   12.92299082159911    1.08465098076382

