95
CSD_code = QEMWEL | q = 0 | S = 0 | Stoichiometry = C46H42Cl2O2P2Pt | MND = 4
Pt        5.86905827648208    5.57408901823883    9.61910871005654
P         7.14774406168482    7.16307800022533    8.55122024850303
P         4.58246765504959    3.99921291390839   10.69747122216537
O         1.33163831097405    1.36381254849010    9.07112655391728
O        10.43049726860792    6.71848109706197    5.52321297009343
Cl        5.87389239591866    6.87013387505080   11.53703439107541
Cl        5.86761206439582    4.25779066656486    7.68549638028910
C         7.04824467190410    7.25096293834654    6.68498984299317
H         6.89684113089876    6.21509608121818    6.35865309435680
C         8.36350504833011    7.75980278108338    6.10049395957982
H         8.25196272109579    7.95326116017654    5.03013664463284
H         8.65704676215641    8.70705483573369    6.56380564630547
C         9.50760768322552    6.78544669564995    6.29417009267778
C         9.41484660215945    5.92811213467311    7.53458681687454
H        10.39047342573980    5.47637420100822    7.72971009273688
H         8.70663263824270    5.11836362527421    7.33147632393265
C         8.95195227114184    6.75745613031630    8.73750431318456
H         9.52699868334856    7.68868098165592    8.75584491943279
C         5.83858050704936    8.03689696596299    6.26649136095959
C         4.67431896457045    7.35435390178844    5.92971006858655
H         4.66529254651235    6.27480690281486    5.96683247290976
C         3.53972615440523    8.04159174893006    5.53759004395627
H         2.64506440154632    7.49644926613971    5.27435480959969
C         3.55233773283188    9.42540927896603    5.47959107494234
H         2.66783982941827    9.96446566267127    5.17405469654108
C         4.70610302444284   10.11334969518233    5.81302921509021
H         4.72494185674212   11.19227667875765    5.76813150168167
C         5.84198935180957    9.42561632672055    6.20183392796367
H         6.73406884027305    9.98144318730808    6.44841795722917
C         9.14158303470019    6.06985262045571   10.06242325027225
C         9.62458875826461    6.79022373086281   11.14800453312614
H         9.84315851478981    7.84297545753673   11.03625625598520
C         9.82823320687565    6.17506534552445   12.36970814925025
H        10.20135869555537    6.74970606847053   13.20417307134702
C         9.56306057873615    4.82547823851732   12.51638860924257
H         9.74027192896529    4.33628456336213   13.46273899800539
C         9.06426206711310    4.10186518257408   11.44624514353047
H         8.85455178893951    3.04818571778667   11.55720961377753
C         8.83495496183759    4.72246151914466   10.22860003562668
H         8.46574406393924    4.13692678646570    9.39724814651226
C         6.97244702359546    8.89929474760418    9.05484768804544
C         5.67704584344749    9.28749201975905    9.38412840884623
H         4.89472229508377    8.54178416086700    9.39105167070700
C         5.39670348847961   10.59734524074605    9.71929831238617
H         4.38824265986533   10.88037607411990    9.97951385682065
C         6.41118249502195   11.53981811234923    9.72754349472770
H         6.19958483316732   12.56559484018096    9.99066162060691
C         7.70326602559405   11.16242905141272    9.40376652510202
H         8.49825921937073   11.89416275230455    9.41209073986301
C         7.98730516200661    9.84991043368824    9.06820290867876
H         9.00796977178082    9.59180281451937    8.82340739844583
C         4.68108417091798    2.22815759445870   10.10071306994071
H         4.85766477000098    2.30058607578732    9.02089712725244
C         3.35287121383232    1.51072352720449   10.33046267804356
H         3.46030508036529    0.44166282992519   10.12814500298169
H         3.03212754117871    1.60571465889510   11.37268198732249
C         2.23895067230271    2.05437099951077    9.45877693970894
C         2.34300707068455    3.52621990757593    9.13521495517610
H         1.37651043865796    3.88044812975155    8.76869686000437
H         3.06938252943329    3.64043574910394    8.32374214985404
C         2.78335071030626    4.32548753160050   10.36629203656348
H         2.19477361301814    3.98681791767286   11.22485376951481
C         5.86971833115788    1.53922390497856   10.70713659836444
C         7.05077559786346    1.46450019276962    9.97642307331908
H         7.08767053276362    1.89553028403470    8.98658895918028
C         8.16726593829045    0.83641605859879   10.49853726021943
H         9.07494712232194    0.78166175283207    9.91536040727119
C         8.11945518562307    0.27600811861162   11.76426146759196
H         8.98967016778312   -0.21443222916198   12.17464673270819
C         6.94867058886598    0.34573078322688   12.49910088180478
H         6.90235210261643   -0.09085957979550   13.48584179692584
C         5.83077797640519    0.97013727284322   11.97503196863485
H         4.92490511143021    1.00459972052993   12.56138095362547
C         2.59358527851471    5.81206577108394   10.23205739225296
C         2.89213115592838    6.47671821822345    9.04638281613932
H         3.26093758399636    5.93127713450857    8.18827132251343
C         2.65736646649484    7.83786708566676    8.93374621865005
H         2.86174864421261    8.33960264075781    7.99940943555216
C         2.16080084853663    8.55305100740869   10.01049819265807
H         1.97736088832917    9.61308913854776    9.91589983200448
C         1.90618864108403    7.90614925375471   11.20643052668960
H         1.53648963849035    8.45966778530494   12.05656523728364
C         2.11555073059679    6.54348501537931   11.31273445705823
H         1.90481779441479    6.04185447305513   12.24681117979453
C         4.74033273891077    3.83578153219233   12.49926351646889
C         6.03631910781777    3.97287345244248   12.98850554251128
H         6.82927440087600    4.23037332381369   12.30051953641527
C         6.30401236066498    3.80638193073892   14.33277044956192
H         7.31310861500972    3.92265703522895   14.69759055812949
C         5.27594870588030    3.49853175444156   15.20802244430944
H         5.47754389978112    3.36952263485108   16.26108350296542
C         3.98348179460431    3.36304734794075   14.73086589435801
H         3.17813414958730    3.12642913801304   15.41127634504454
C         3.71223222347772    3.52923732585070   13.38367703027581
H         2.69111656888625    3.41769102166151   13.04744411019672

