46
CSD_code = QEMXOV | q = 0 | S = 0 | Stoichiometry = C19H22NO3V | MND = 9
V         3.57474770252578    2.44694832038185    1.64736874642202
O         3.86832783741826    2.73450466514402    4.59306512114749
O         3.56818319439235   -0.51983258118841    1.43276484719922
O         5.54723851196671    0.79819478836251    3.15768892473138
N         1.52706790273556    2.38641668578695    1.89986927056705
C         5.02013261225335    2.90475745206847    0.10434502163589
C         3.74138515291333    2.88789608095701   -0.50081534193886
C         2.96541268714760    3.90963910275648    0.09748644720956
C         3.76159371390860    4.55841034593378    1.07903559670840
C         5.03421944050201    3.94816241394132    1.07595186157245
C         3.75029609485683    2.55132773390972    3.44065901439664
C         3.57395362069434    0.64289679010669    1.58526088007767
C         4.68347727496477    1.40375434538313    2.61715342258575
C        -0.61520260005307    1.57240570986737    1.22713227736913
H        -1.18060265975834    0.90112655387976    0.59869665778428
C         0.76449875635017    1.58851799348026    1.15232081703640
H         1.28272786851612    0.92975250905879    0.46554681329335
C         0.90782470852643    3.20377356128232    2.74888259785759
H         1.53948542147299    3.84705069599950    3.34961878773679
C        -0.46834149826426    3.25331616434837    2.88734453443725
H        -0.91074338224402    3.93656905787856    3.59629963370424
C        -1.27198634148800    2.42118867225937    2.11568559423485
C        -2.76035301796095    2.42754095014028    2.22280762139869
H        -3.09644985226735    3.14147186728872    2.96952539069442
H        -3.12017625999681    1.43693637941985    2.49642512110068
H        -3.20594517176764    2.68591038710292    1.26309954728213
C         6.19692739221629    2.07949641856353   -0.31584298326206
H         6.75536342477078    2.59238866556286   -1.10371902665197
H         5.87828456512329    1.11170997094645   -0.70294545605837
H         6.87503540117681    1.90616534318110    0.51976283795585
C         3.35693511898323    2.04730271786738   -1.68348736525128
H         3.81648313932881    2.44440883245121   -2.59278205768591
H         2.27780797772307    2.04046151180793   -1.83214001935162
H         3.69377974581540    1.01692223592985   -1.56259028399638
C         1.62581354577253    4.38102493562463   -0.38402159269286
H         1.76181993903465    5.12739089274900   -1.17132340532922
H         1.04723695070086    4.84428646201852    0.41613087321646
H         1.03475795961289    3.56394667620690   -0.79910608298792
C         3.39605502450202    5.79780131168047    1.84292161758901
H         3.83429556228011    6.67820420876346    1.36477126201467
H         3.76864067633448    5.75515894236918    2.86711677378867
H         2.31650813232857    5.94072038338063    1.87535031699012
C         6.22616267384563    4.39356885988416    1.86556975081501
H         6.80899659822411    5.11891594490074    1.29133219255397
H         6.87678492107243    3.55202519341661    2.10426963242339
H         5.92373953380878    4.86676384714437    2.79951380967421

