37
CSD_code = QEMXOY | q = 0 | S = 0 | Stoichiometry = C14H12N6S4Zn | MND = 4
Zn       14.22368507140379   10.30381430087628    1.94097168042353
N        15.47093001857205    9.19899973103279    1.18579321905648
C        16.40431145617372    8.54034003199575    0.88232403548274
S        17.65201659310943    7.65700848131386    0.53033122133435
N        13.11360968684186    9.09617520172585    3.21873198907718
C        13.58290195179822    7.91802149509038    3.62488987351616
H        14.61140638882042    7.70311612457477    3.37340671729811
C        12.81578588080182    7.00371074778180    4.31820609379819
H        13.23156120468328    6.06112534027833    4.63776387223630
C        11.48297780204302    7.30513631448646    4.59996005022703
C        11.00187226303807    8.54659156522164    4.17896453295308
H         9.99253211780695    8.86046158922173    4.39501168979599
C        11.85082825316918    9.40139479731837    3.50249382448952
H        11.50543295862199   10.36683777894473    3.16158844276807
C        10.64876975020476    6.35811674325756    5.34972777343388
N         9.32681157902405    6.35626315640093    5.11740101941604
H         8.75548865443623    5.69868221458697    5.62329950847177
H         8.91705030749580    6.86516841020874    4.35177073371512
S        11.32132200980773    5.37973598100333    6.48778100011682
N        12.97679645876711   11.40864534949659    1.18511239804685
C        12.04423236811992   12.06836495765294    0.88164490156652
S        10.79754558385090   12.95309747110086    0.52981365177755
N        15.33345009155946   11.51164718420498    3.21894228795010
C        14.86425391163924   12.68984813232449    3.62508218881861
H        13.83569895910965   12.90475274770113    3.37379578440396
C        15.63149143363311   13.60420330909869    4.31821947577475
H        15.21574169694734   14.54679495730504    4.63779100755931
C        16.96433979377372   13.30277637236870    4.59977176865072
C        17.44536139019714   12.06129609236954    4.17875306479720
H        18.45475403515488   11.74747895098176    4.39462396405289
C        16.59628074689419   11.20644402670746    3.50251592495620
H        16.94162768974497   10.24098341659337    3.16162437730096
C        17.79871102625526   14.24964800173485    5.34954751614791
N        19.12056351466098   14.25176498775425    5.11668014526898
H        19.69210416566600   14.90899524438113    5.62277980514910
H        19.53005557349129   13.74318818800699    4.35068745850920
S        17.12639761268492   15.22737060489550    6.48829700166143

