56
CSD_code = QENKAW | q = 0 | S = 0 | Stoichiometry = C23H27N4PTi | MND = 4
C        11.40879210421889    4.96950039517324    7.83117908398195
H        11.68540152721560    5.85303588388532    8.42717302552207
H        12.33522782556712    4.53581595900809    7.41528492879825
C         8.90005753633981    4.10301908927436    8.89044074003007
H         8.39232259886197    3.73195777874133    9.79401373290580
H         8.84133107030270    5.20615302118561    8.92416392006056
C        10.83470492392639    2.16413593882746    7.98642206110282
H        11.81495408655381    1.70708212440836    8.20112160725906
H        10.05508166507618    1.46223550402699    8.33168166181473
C         9.95491114893518    6.54699560583276    6.66027952941302
C         8.63873412593418    6.66856209870487    6.16227061375089
H         8.06171428647916    5.74836029508248    5.98854697721207
C         8.07975845015821    7.90901051071519    5.93596164387834
H         7.06950952140052    7.97989803079810    5.55731186529975
C         8.79821943364663    9.06605488441619    6.20619269931680
H         8.35703090192771   10.03475295194034    6.03015383668653
C        10.08458565920527    8.96288610770430    6.70904877137419
H        10.65126480997804    9.85792546373983    6.92254122155743
C        10.66273053101730    7.72918355865699    6.93430814593711
H        11.67767899416434    7.67683114310644    7.30322202333766
C         7.45773349184108    2.53560146106480    7.70360253090843
C         6.60480706235636    2.36127700242274    6.59325660308796
H         6.60756354870463    3.13150497245091    5.82315830743445
C         5.76362204702684    1.27354107010525    6.50363034638046
H         5.12009433011808    1.16423069151396    5.64182945893840
C         5.72273065475570    0.32808969426921    7.51925925911172
H         5.06253706272683   -0.52233984309836    7.44870015803072
C         6.53003233245830    0.49845439352695    8.63080727813507
H         6.49999895838131   -0.22504026036837    9.43347454183991
C         7.38229117628770    1.58116287872140    8.73386745932641
H         7.99904005204441    1.67754473238709    9.61818792016212
C        11.66498707600475    2.12061532980184    5.70548744005020
C        11.97481667794445    2.98697476138617    4.63885120510394
H        11.47242013656477    3.95715531470912    4.59718634602935
C        12.91223944268803    2.63258726161695    3.69127214218377
H        13.13767922112953    3.31217733541308    2.88094365352049
C        13.58424836778974    1.42117578742802    3.78110553152840
H        14.32082736413717    1.15032306662404    3.04033272387706
C        13.30477116457394    0.56811327085937    4.83537057135444
H        13.82346076648956   -0.37664105010582    4.91525035338754
C        12.36108908948471    0.90415589558834    5.78644009473241
H        12.13920430678719    0.21173922300203    6.58710409249562
C         8.93176335495363    4.55899849069138    3.43842453149437
H         9.65208647317668    4.24248982467152    2.66424720999808
H         9.23317907909565    5.54614445984044    3.81047886852519
H         7.94948579986365    4.65884035079435    2.94443605978398
C         8.64733601700817    2.26756111876090    4.04324855178172
H         9.42923714299442    1.96197068666231    3.32511566410335
H         7.67683151439873    2.18535514611105    3.52526931314180
H         8.65181944769868    1.56212722276124    4.88480498251842
N        10.45908200781157    5.28492044549363    6.80852416610165
N         8.27384292694899    3.63451377267876    7.68947348967566
N        10.70185593254469    2.50182557595238    6.60319238310410
N         8.87679872830139    3.60995192945190    4.52331012988533
P        10.74994407240162    3.70242684046803    9.10514557117198
Ti        9.45553197160951    3.82557480111480    6.24519297184914

