130
CSD_code = QENLON | q = 0 | S = 0 | Stoichiometry = C69H57CuN2O | MND = 2
Cu       11.07461381247563    4.54639688656381    5.79444164065868
N        10.35281812811639    1.75455369053548    5.92047416871962
N         8.63111801597821    3.03348456720175    5.89098589857493
O        11.94530281941260    6.03254750787702    5.52853535965370
C         9.98323203302466    3.05742384695731    5.91655791511441
C         8.17050936109428    1.74060663017710    5.87483188194800
H         7.12609928126752    1.51112370442823    5.83972992091620
C         9.25550458938756    0.93487969713180    5.89473440575837
H         9.33697825322787   -0.13138036975625    5.89239726997067
C        11.70633017559478    1.33913427521451    6.01967327188212
C        12.44773419319943    1.11545998941816    4.86066713040666
C        13.76879789760792    0.71784018466234    4.98405854012280
H        14.35323149798392    0.53887355995226    4.09349366907688
C        14.35664610337848    0.55219854478995    6.23162084134935
C        13.60067246007587    0.78912502175052    7.37079533697195
H        14.05023133814411    0.66483669457803    8.34487926653296
C        12.27606201373998    1.18905079051964    7.28345096790517
C        15.78159775020780    0.10304504580677    6.33812493858340
H        15.84513139568666   -0.97618611781778    6.19532740557833
H        16.19146201292381    0.34120237432630    7.31626240192856
H        16.39138461408936    0.57657358829985    5.57193211406168
C        11.42083671841811    1.43910799360684    8.50557609148202
H        10.82343710567527    2.34055471943588    8.30808035239036
C        10.46316125236602    0.29143514315685    8.74436970395411
C        10.69380231225189   -0.98296134588280    8.24199343565336
H        11.58577831306289   -1.18055076309177    7.66447094316210
C         9.78683253091910   -2.00320763532828    8.47382287513693
H         9.97811288444592   -2.98898698545834    8.07466455974485
C         8.64106971260756   -1.76552529481751    9.21266107164853
H         7.93337886549016   -2.56220618148418    9.38838899177772
C         8.41204399974434   -0.50227319978717    9.73194242990238
H         7.52517843611358   -0.30639144402451   10.31724588018166
C         9.31925659770406    0.51478142686538    9.50074742202682
H         9.14866692338993    1.49570386361715    9.91718042383446
C        12.25909088457595    1.74492295498273    9.72597655605421
C        12.56364022290903    0.77901099168171   10.67497048010351
H        12.18736079789301   -0.22725523450309   10.55748049424823
C        13.34363817158709    1.09931949116569   11.77299484440828
H        13.57205539572412    0.34037131368853   12.50732469283359
C        13.83026354528792    2.38528396422302   11.93060651393185
H        14.43781542659944    2.63340102910468   12.78854155776870
C        13.53481939130280    3.35156098458740   10.98353744080306
H        13.91224425972652    4.35668940482153   11.09899255523132
C        12.75341554518341    3.03332409382349    9.88867361916419
H        12.51972312831948    3.78840806845775    9.15163978135493
C        11.76276965259960    1.28180738702709    3.52160556951265
H        11.18596147727959    2.21579593021056    3.56545349705981
C        10.79101565125141    0.14371844763550    3.30754155581447
C        11.09980030688954   -1.15200693596191    3.70639729488450
H        12.05303966049065   -1.35513567493712    4.17422028677367
C        10.19242618733318   -2.17917555374437    3.51692305038267
H        10.44454590474395   -3.18186808453148    3.83122968028277
C         8.96430350835830   -1.92496410327706    2.92939528628715
H         8.25589333935079   -2.72757220774956    2.78622984630935
C         8.65056134781675   -0.63801482875371    2.52815138076736
H         7.69531588679580   -0.42401297787517    2.07187852474553
C         9.55956430232809    0.38739267558403    2.71582645763232
H         9.30383875335005    1.38913147510392    2.40342594525716
C        12.75948178650347    1.43485159346317    2.39455965763761
C        13.12447442037592    0.38007635229123    1.57003876840571
H        12.67318896444077   -0.59191527288030    1.70575187017616
C        14.06196923840582    0.56680143924514    0.56797117971405
H        14.33692148454956   -0.26235650150836   -0.06798545466822
C        14.64590960734719    1.80719760488639    0.38099857746468
H        15.37811019882583    1.94999163121814   -0.40014311570690
C        14.28496593712520    2.86503427345568    1.19902443592418
H        14.73378520190635    3.83716786399156    1.05751211642211
C        13.34706186059591    2.67981471178135    2.19770344186779
H        13.06638049820274    3.50609607933215    2.83582735989500
C         7.79526591031957    4.17654815639252    6.00069763610408
C         7.30003655015691    4.53217960803082    7.25754473270043
C         6.43882460682058    5.61469900259965    7.34904070864086
H         6.04873587993727    5.89781954171774    8.31440618959112
C         6.07055321051920    6.34336247980651    6.22804822869117
C         6.60669846787229    5.99407791581134    4.99782788963888
H         6.34825901248317    6.57171045648656    4.12323962457084
C         7.47819047662513    4.92367531471650    4.86576051515658
C         5.14679343777488    7.51500093606185    6.35338182047537
H         4.42396430354592    7.35552201606713    7.15029061014249
H         4.61723507690541    7.69317767243626    5.42078125351874
H         5.72004482956422    8.41109563127143    6.59200337338011
C         7.73837770896888    3.79438526710993    8.50562923102317
H         8.17790246105720    2.83511227136411    8.20345972762760
C         6.53961993359127    3.47304999271555    9.36880660694337
C         5.86183273310047    2.27671597426611    9.17023310476266
H         6.22090685477185    1.57747150148497    8.42698361498521
C         4.74188989141169    1.96595825720993    9.92028210848503
H         4.22771387538990    1.02995177852371    9.75588194237936
C         4.28306992534059    2.85055079731276   10.88099270479226
H         3.40936858097075    2.60957771584625   11.46828176277076
C         4.95476520179645    4.04290344635847   11.08943698868810
H         4.60625607624927    4.73502912712525   11.84219798541233
C         6.07540979917182    4.35259464747012   10.33925590372014
H         6.60526329651155    5.27648462517377   10.52314446820383
C         8.82080401115811    4.55350709487547    9.25369137537556
C         9.52129692965742    5.60088606521883    8.67051688538252
H         9.28243382928905    5.92915177016723    7.67019531122744
C        10.53977249293293    6.23641045928633    9.36131076433174
H        11.07391650109253    7.04432625997422    8.88441322068615
C        10.87498356234426    5.83323423412739   10.64101819677858
H        11.66897287031202    6.32933751556445   11.17933291172469
C        10.18496876310003    4.78682461674796   11.22971006238864
H        10.44109536527344    4.45908215024805   12.22666965629813
C         9.16714923528963    4.15405931406776   10.54091704971787
H         8.62426800104506    3.34952242981990   11.01815629208860
C         8.08707440170767    4.58054725328610    3.52467835538390
H         9.07820673493437    4.14446931814185    3.71679057260672
C         7.27988338279884    3.56058311872421    2.75397554772454
C         7.75519791344272    3.13306250374768    1.51711271215518
H         8.67751660346955    3.54791059082168    1.13366237160369
C         7.05262924206335    2.20491678516814    0.77182431829614
H         7.43377159275924    1.88706134411566   -0.18768426959374
C         5.86492609601705    1.68133549746868    1.25682381872235
H         5.31329482947689    0.95673182006846    0.67568267573276
C         5.38688391850284    2.09736521903756    2.48630137358190
H         4.45923718485416    1.69710747306683    2.86975005726617
C         6.08787676841061    3.03300963728289    3.22924353984380
H         5.69492551562754    3.36094956208718    4.18115753956878
C         8.31844951694129    5.84833441583821    2.72643162469992
C         7.41809142280603    6.27573335393781    1.75877707946538
H         6.54016152221485    5.68304483703903    1.54030747610294
C         7.63865869069904    7.45484953486101    1.06814354598153
H         6.93209178603790    7.77422636150218    0.31501966721846
C         8.75709672568507    8.22246013332086    1.34224412745914
H         8.92774741918172    9.14281472167678    0.80252669196409
C         9.65299653890141    7.80583842373440    2.31233870718889
H        10.52584841680753    8.40026232172406    2.53770818507002
C         9.43643810074441    6.62650874035220    3.00209041313429
H        10.13896928020960    6.31619330498308    3.76454930440543
H        12.88812138862497    5.93372488903088    5.67040983066664

