102
CSD_code = QENLUT | q = 1 | S = 0 | Stoichiometry = C49H45N4OP2Ru(1+) | MND = 6
Ru        6.07649051037775   19.58968957079831    7.14652336836443
P         8.35619403882596   19.73330687328536    7.65122326612952
P         3.86411664103646   19.26605001671694    6.45123226622472
O         5.47583901870228   22.39673179208219    7.98645858198090
N         5.62729858124113   18.53148319113883    8.95033663071305
N         5.67123559433252   20.30079299530971   10.41804089551182
H         6.36481709584882   20.69766888731903    9.79670619063724
N         7.53889119025955   18.03730294372894    4.61579652947653
H         7.29802092425963   19.00320721424080    4.82251696143649
N         6.41747968381376   17.57950615972202    6.57336771083869
C         2.58755882988073   19.07194396681382    7.74272013594906
C         1.53586262249448   18.16265854057610    7.71531397652161
H         1.42458033641957   17.47120709214186    6.89324322066303
C         9.45762847635452   20.83616066134291    6.70487220365675
C        10.81836063385945   20.85291231371825    7.01030764853038
H        11.20693476193586   20.18279276485061    7.76567694120374
C        10.05317804758896   17.80270212866605    6.50021076728372
H        10.32109232254533   18.55972252644419    5.77673653162768
C         9.18386108734199   18.11509414504844    7.54023968799021
C         5.71209234683541   21.30695829160465    7.68976951857338
C         0.60697360659206   18.15153336486922    8.74163634849641
H        -0.20403513823372   17.43911960238456    8.71701821186286
C         8.47062140332383   21.69211203436397    9.54989304761513
H         7.98446592321419   22.25983560182004    8.76456109152621
C        11.66316571320274   21.72376971172725    6.35086018928762
H        12.71657329425713   21.73192372289133    6.58670400607873
C         3.73360054636470   17.82773627556271    5.34205367090117
C         1.73640785434708   20.31865207936578    5.01869240612852
H         1.24018410813106   19.39316907991507    5.27626748427979
C        11.15825250119653   22.59228116820837    5.39414430923233
H        11.82083551703037   23.27453332839239    4.88408374035283
C         9.34493054695593   15.84825596782390    8.33820104313267
H         9.06407766756923   15.08703073410610    9.05096621605336
C         1.07812236522836   21.27007983335833    4.26458958619563
H         0.06692337815293   21.08720503109529    3.93370871579301
C         3.50899358396506   16.53048342977262    5.79414822281163
H         3.30539642231971   16.34514198825467    6.83963228484705
C         2.66216636984295   19.99621886920085    8.78307005957964
H         3.45468669724912   20.73532705961684    8.77410717309651
C         8.81863495491073   17.12147018684573    8.44745256744066
H         8.11316996218652   17.34893026971178    9.23834504554732
C         5.94980059507763   16.68829245981981    7.46801416801530
C         3.04278612835670   20.54841200235436    5.44734340040805
C         7.03755307726117   17.12677641350220    5.46408783755745
C         4.54544314615292   16.47691664902580    9.52694116833921
H         4.27651776378945   15.46786761351679    9.26670459199463
C         5.33475438824516   17.24365349928177    8.68192922348280
C         0.70352455980700   19.05393026928834    9.78722347639774
H        -0.02592488234488   19.03923684090497   10.58242999125177
C         8.95428007512871   21.71604023196710    5.75610020443215
H         7.89236301264983   21.71657508589201    5.54323395043879
C         9.78719617446740   20.25183877846819   11.50549783296346
H        10.31370226595316   19.69144085858240   12.26348684422195
C         5.25924588320507   19.05005154150743   10.13727222909636
C         3.67736455051305   21.73699350219134    5.11137906421373
H         4.69566250845071   21.90938564033955    5.43314581921274
C         4.08161471965436   17.04001323781815   10.70968624335011
H         3.44660341790495   16.47091913649898   11.36989353868044
C        10.57547320844608   16.52578021077524    6.39414506676638
H        11.25865906707100   16.29179734850322    5.59126976569170
C         1.72568737635582   19.98892964511795    9.79861079645826
H         1.78571362800585   20.71612057941244   10.59471266579503
C         8.81859389296204   20.36033667276791    9.31099550459349
C         3.55178818736317   15.46942842456299    4.90682229402381
H         3.36522002138586   14.46730670977464    5.26345940386663
C         9.49390301234382   19.64804826804768   10.29294400824666
H         9.80974113999449   18.63045592914742   10.11702163194192
C         4.46847163299012   18.31442087173226   11.04127832807935
H         4.16580078284285   18.76034023658926   11.97194660764073
C         4.03980452507211   18.03786366698995    3.99833063648344
H         4.23819589388329   19.04415222741174    3.65261023908031
C         3.83750386311987   15.68745868357708    3.56980885698524
H         3.86935182934581   14.85590725912427    2.88258233679467
C         9.42111902104269   21.56470809047428   11.74472511574692
H         9.65466555139320   22.02742942975602   12.69114813256257
C        10.22702931475357   15.54930985091356    7.31229252777031
H        10.63808612754034   14.55515622761836    7.22754433451561
C         5.40753053896940   21.00210259525528   11.64726722836174
H         5.80994972286033   22.00766310193950   11.55987841958888
H         5.87854236902341   20.51172737780675   12.50469656879309
H         4.33322241038537   21.07335682979332   11.82573386676594
C         1.71355308233725   22.45788817097284    3.93516427596406
H         1.19555142996963   23.20093472112402    3.34835073124165
C         4.08585528503786   16.97389250275342    3.11784183603329
H         4.31344828222083   17.14705746462706    2.07649382003064
C         7.18681011039146   15.74569146431654    5.22542805646157
H         7.67193203377704   15.41129943934734    4.32586225802923
C         8.76969231948064   22.29034236456373   10.75853111271859
H         8.50446224489058   23.32290509837766   10.92915302613044
C         9.80533972356765   22.59049922023073    5.10104096703577
H         9.41019595160496   23.27439523979835    4.36511499393150
C         6.10144840433848   15.32012723231156    7.30028818855498
H         5.75537281780074   14.63111471690558    8.05036393244587
C         8.14362982646909   17.73479011531085    3.34545695093911
H         7.44374505673387   17.22473750454996    2.67695827962649
H         9.02735921873826   17.10650826541346    3.47707375491210
H         8.45138191642909   18.66733562721465    2.88035004640525
C         3.01142518450344   22.68856354132279    4.35729691329983
H         3.50843540448323   23.61167255964267    4.09987487848230
C         6.72480930930694   14.84821258355263    6.15250744270082
H         6.84553535849502   13.78794658482824    5.99628037386783
H         6.29379652533725   20.16254016368541    5.74684578367400

