101
CSD_code = QENMAA | q = 0 | S = 0 | Stoichiometry = C48H44Cl2N4P2Ru | MND = 6
Ru        5.51532088470332   12.39650059578051   15.37164509001657
P         5.63289503914805   11.75869983256025   17.59733840245828
P         5.39744374135133   13.08109796997609   13.16415596118284
Cl        3.69561837778652   10.88465898974540   14.76790929964680
Cl        3.67795178468144   13.78640006276855   16.19316211774266
N         7.12727266313050   13.73925331184268   15.66116310985058
N         7.14235751304652   11.10624863836395   14.94624886753656
N         5.98559249244655   15.63468266423719   16.32279824042819
H         5.14413970134291   15.04338789898372   16.35539505024655
N         6.05769145361081    9.26662228066023   14.06647246594619
H         5.19072249798330    9.81585419416320   14.14251379790788
C         6.01287178651832   14.75770201633851   12.76825338599717
C         5.27860576587635   15.77899132240428   13.37006863352613
H         4.44985224476151   15.51716884006080   14.01664347251513
C         6.56633878279221   13.02869174785100   18.50877658559185
C         3.84851344137509   13.24917685262906   12.21037865227747
C         7.05477146665781   15.08205567609932   11.91127211948840
H         7.60735824029019   14.30948535262603   11.39758920344796
C         6.43310620896983   10.16036789878377   17.97898026701620
C         8.30844988039081   13.14603511659011   15.41332765882870
C         5.59351281171172   17.10188287009752   13.13170435686381
H         5.00438116825085   17.88734693818430   13.58298352287196
C         2.92986580356513   11.24369543334852   18.16293625124191
H         2.77541404107412   11.25505162002156   17.09409245746804
C         5.87018284541653    9.07537167929328   17.30921683745384
H         5.04612727581551    9.25220152618902   16.62782953409462
C         8.30877715285985   11.68589284041569   15.28340192496892
C         7.75642621527953   11.94293783619655   12.18876678921122
H         8.26634262359194   12.70861366398026   12.75878406668571
C         4.19023208227868   11.49504345492964   18.68672450714231
C         2.61654100353103   13.32807179339177   12.84423101315512
H         2.55348517807439   13.23432562463462   13.91834449525079
C         6.36374665467979   11.93041897632079   12.13479856261608
C         7.95771424866156   13.07967631920090   18.45381760507543
H         8.50725074096884   12.28892395250460   17.96098747662255
C         1.54142336571983   13.65189813034850   10.72365976194919
H         0.64286636046851   13.80031893100143   10.14223841709096
C         5.87229186749902   14.08365416817946   19.09680199844994
H         4.79098548404807   14.07004863047412   19.10288907673436
C         7.15597051040377    9.79210496181523   14.61672660537734
C         7.38052689879001   16.41045841928029   11.69247132902954
H         8.19867564801148   16.65600781859840   11.03036550391236
C         3.32136667489973   11.19602382367235   20.90699958500916
H         3.47549379097260   11.17169171334367   21.97649753196368
C         2.77364956436097   13.59764145560037   10.08918520719515
H         2.83581370175239   13.71021932529687    9.01606518484800
C         7.11982609036935   15.07262718447143   15.90314108063751
C         5.72286738124714   10.89835694621005   11.45431833724030
H         4.64262926038662   10.85398918537166   11.44883037469453
C         4.38542647562170   11.45369998850246   20.06583378703200
H         5.37182501325370   11.62882877981451   20.47497707629310
C         1.46589774648288   13.52338117714575   12.09884447548436
H         0.50898036731842   13.57505759518254   12.59687740974683
C         6.34348718829087    7.79666765984943   17.52755477333772
H         5.89361501349134    6.95742964358369   17.01653107863918
C         7.38976157606123    7.58895927278908   18.41214980162285
H         7.77009128887674    6.59153341423879   18.57823903453559
C         7.94296635756909   15.17672268622373   19.61927774212981
H         8.47969628420588   16.00732797124614   20.05454990340112
C         7.45271676183999    9.94233376023516   18.89519701054968
H         7.86798741571449   10.76246155497467   19.46236574870761
C         6.55868002715712   15.14463400629126   19.65766045160894
H         6.01097179165512   15.95295826546286   20.12026904797832
C         8.49051474756221   10.97005266384540   11.53659294865916
H         9.57016304983438   10.99040278258646   11.58415354603151
C         3.92412620039620   13.40398685416876   10.82721791530372
H         4.88758794737747   13.36937827493146   10.33527860986383
C         2.05870515975133   10.96652585991696   20.38132029873628
H         1.22781580085359   10.76891849014955   21.04318182073970
C         1.86661868117346   10.98595797591405   19.01154986331349
H         0.88610971900037   10.80082894504310   18.59825437638379
C         8.31677503880612    9.00972041858400   14.80083285005742
H         8.27953749970771    7.95634990355929   14.58610788339031
C         7.93441770587731    8.66026507775670   19.09834592471410
H         8.73478828636108    8.49749471879385   19.80615886230304
C         9.48848454343246   13.86019951011008   15.24828695957014
H        10.40109942289108   13.35411341909964   14.98476904831460
C         6.46088529509862    9.92967545601857   10.79934175162870
H         5.95367858446362    9.13828828068817   10.26668749843745
C         7.84487097153634    9.96549696590911   10.83441665267349
H         8.42115679675974    9.20669962179680   10.32505526498101
C         6.65748584884645   17.42028143693911   12.30200115509844
H         6.91367396101370   18.45397555477404   12.11981314831887
C         8.63962178310558   14.14547553612703   19.01109488234771
H         9.71899762976212   14.17514000773061   18.96328218017855
C         8.29043984933750   15.84624264556184   15.74544282492211
H         8.23970878248486   16.91034974234246   15.89409400150034
C         9.46206284552449    9.58973918704505   15.27921653497028
H        10.34438889714259    8.99749208647435   15.46855683332269
C         9.46621463005365   15.24027906020011   15.38874735433261
H        10.36287725622240   15.82125019850429   15.23471204077936
C         9.47532703833752   10.96129902470289   15.48933449289182
H        10.36954688999812   11.45084375551607   15.83519604410290
C         5.91743026619685    7.89068354273735   13.68020816957235
H         6.65845691335417    7.62474845607160   12.92177323985143
H         4.92451945997063    7.76438659610299   13.25695370025198
H         6.02337826198536    7.20979662114767   14.53080668962192
C         5.83918335486692   17.01624122120332   16.68277775661596
H         6.04499278185740   17.67921935274946   15.83700914745677
H         6.50836502492659   17.27968299705071   17.50748657672924
H         4.81232935503205   17.16904549779869   17.00361203446250

