53
CSD_code = QENVUA | q = 1 | S = 0 | Stoichiometry = C25H24AuNOP(1+) | MND = 2
Au        0.05453481371716    8.92742552991862    9.15350785649542
P         0.43462835353468    8.07874595508545   11.21028021194885
O         1.79499837798449   14.96007622321646    6.86981494516061
N        -0.29981491191249    9.79949951495182    7.19055640589527
H         0.10074116209036    9.19576239597034    6.47570749173032
H        -1.30573217222205    9.83519094648030    7.03822545145653
C         0.25752293757117   11.13134808814079    7.06488688329708
C        -0.43585017326790   12.22092997857071    7.57633272610102
H        -1.40348679281845   12.07761970721779    8.03472541962486
C         0.10685093743644   13.48293232976599    7.49373037518675
H        -0.42022660035439   14.34005019416282    7.87914742538893
C         1.35665467826376   13.68584769745711    6.89692171085754
C         2.04420470631334   12.58759122256947    6.38548814701695
H         3.00503172710909   12.70412661306487    5.91210629464638
C         1.49190688960790   11.32066699726010    6.47185526846512
H         2.03361358327088   10.47709052392163    6.06855291752990
C         3.03570627591920   15.24839529217185    6.26211549048621
H         3.85968692448840   14.74456519036535    6.77612199712928
H         3.16109648824520   16.32558360495842    6.35154757361746
H         3.03691002921277   14.97112449045647    5.20410515420130
C        -0.79549852935245    6.84907771574598   11.70619029461029
C        -1.64918308191862    7.02991562176216   12.78796042771358
H        -1.57784098676195    7.92228807296487   13.39358691039332
C        -2.58775074804438    6.05586340155740   13.08457984586336
H        -3.24863640269302    6.19078289918557   13.92689993844717
C        -2.68017109348246    4.91435117770666   12.30588158616034
H        -3.41242650978704    4.15850901998899   12.54382263920532
C        -1.83716338429404    4.74006626612262   11.21771204363479
H        -1.91347334025922    3.85141878800568   10.61011512945880
C        -0.90066252623346    5.70745747910816   10.91153180273337
H        -0.23579414999816    5.58702226942605   10.06496684318319
C         2.03690390838346    7.24959844227893   11.36920630818129
C         3.12912248687733    7.85911234224529   10.75673432427237
H         2.97855836717278    8.76833333766050   10.18669391387469
C         4.38803777073619    7.30421513905024   10.88300209234011
H         5.23584978067417    7.77673350288269   10.41109173500485
C         4.55848430718333    6.13784292217504   11.61354530136136
H         5.54101723487266    5.70229647134417   11.70872605056962
C         3.47170180313660    5.52853829831495   12.21947427644247
H         3.60740733666039    4.61988097203840   12.78583873493800
C         2.20795135147051    6.08056175840903   12.10323105122635
H         1.35872496878368    5.60330250798069   12.57253048240719
C         0.45531979371657    9.32913748147372   12.51660532789390
C         0.94100220785481    9.00525027360720   13.78190896328588
H         1.31641397560639    8.00960028146173   13.97571843558445
C         0.94051516630320    9.96286822131021   14.77826931228839
H         1.31507748722793    9.71599025771595   15.75977023164355
C         0.46180555436553   11.23830473723974   14.51757608099281
H         0.46438956543833   11.98257458093447   15.29873817549000
C        -0.01563441500168   11.56192804386256   13.25785035082369
H        -0.38383737464344   12.55613198678983   13.05671588571449
C        -0.01795575681611   10.60970099457990   12.25431106167785
H        -0.38373200134592   10.85147223932295   11.26358469635161

