48
CSD_code = QEPBIW | q = 1 | S = 0 | Stoichiometry = C19H22N2O4V(1+) | MND = 6
V        -1.20894350949411    1.75571444332717    7.79787521829026
N        -0.20488604414833    0.03428936103648    7.62501749398376
N        -1.18941683341581    1.15371685512709    9.74248546602200
O        -1.37888195660882    3.28324937058361    8.46255533275750
O        -0.62376267146196    2.07011482534811    6.24700649274968
O        -2.58070746981183    1.13372126818305    7.58644666389357
O         1.25568533904826    2.49230466664669    8.33254085552232
H         1.14832381298438    3.37065744209348    8.72165175544368
C        -0.07108739129929   -0.59841467238611    6.50774201291404
C        -0.63756634505150   -0.06209322627030    5.28353865975357
C        -0.83642705178394    1.34356525973555    5.18954935199722
C        -1.22334606553973    1.90794773279935    3.96712284617974
H        -1.34903497856991    2.98020532151734    3.91737822218934
C        -1.48831933633865    1.10204856973698    2.88189070038033
H        -1.81487784031628    1.54580652920079    1.95429724281799
C        -1.35103083936876   -0.28003139114572    2.98099871415881
H        -1.58478559903777   -0.90568578745814    2.13464960333827
C        -0.91436557035253   -0.84909917582414    4.15602147763818
H        -0.83126522598637   -1.92299004893299    4.22039279260884
C         0.74510113946057   -1.85708701506959    6.40720379751658
H         0.93757082288962   -2.11605114562581    5.37187429482783
H         0.21779413965822   -2.68662198495780    6.87925300515957
H         1.70425933640650   -1.73162794331778    6.90720066825143
C         0.39889957704747   -0.42869011320917    8.84692752102060
H         1.32945716039554    0.13187193129500    9.00505568905171
H         0.61808449105253   -1.50148713030521    8.84016187270238
C        -0.56936808569953   -0.12159553405375    9.99093104566805
H        -1.35466008766321   -0.89230288000059   10.02151421751867
H        -0.02089068386206   -0.14253094428879   10.94109064948708
C        -1.95647401682331    1.68681948487689   10.63990340701199
C        -2.65692226899347    2.93698008007468   10.39549509767478
C        -2.27801789647632    3.74137462488514    9.28515808210887
C        -2.85673722141303    5.00228626791128    9.09810628673980
H        -2.53079750853521    5.59200232105639    8.25283006511723
C        -3.84934472038149    5.44544597152779    9.94409293426069
H        -4.30533243427145    6.40894615622401    9.77816040876322
C        -4.27408376221614    4.64373687458569   10.99868208814607
H        -5.07048685847663    4.98013266120095   11.64290555863168
C        -3.68223882342453    3.42095681575999   11.22413014500414
H        -4.05444189619091    2.81794903786618   12.03643153499158
C        -2.11278441885848    1.02311886016992   11.97535691712926
H        -2.65963545512144    0.08703143791750   11.85572313995905
H        -2.63630724886712    1.64790849899783   12.68817185914588
H        -1.13713468288531    0.78342805841235   12.39758451599280
C         2.20747113970726    2.61044652073428    7.28356001619880
H         3.17178905761263    2.94422951738159    7.67831115395547
H         1.86862825045610    3.30698890889170    6.51198389137087
H         2.32659853202715    1.62171331774025    6.83993923395516

