48
CSD_code = QEPBUI | q = 1 | S = 0 | Stoichiometry = C19H22N2O4V(1+) | MND = 6
V         8.38293280734415    4.42443056851020    0.77543371336090
O         7.56119177744856    4.90385919746247    2.13769139158221
O         9.13028847885462    3.00666097754896    1.28730842698911
O         7.41282047293702    4.01466010049289   -0.32854236681502
O        10.31681878100885    5.48365503788348    2.21475168605088
H         9.94800855050570    5.80700375956524    3.04728961073771
N         8.23246925788555    6.38707092589322    0.22578219543395
N         9.89871431331398    4.58224199360795   -0.51633150286994
C         6.76077210440574    5.80722094612901    2.61553973621952
C         5.99232742322810    5.61393259683261    3.77062173433307
H         6.05313554462655    4.66209740185679    4.27863396119420
C         5.16740340766260    6.61617872762858    4.22985742282498
H         4.57475633247926    6.44744638189902    5.11663511237281
C         5.07333192187351    7.85221630993768    3.57626006052874
C         5.83166197960088    8.05308193660464    2.44096941003042
H         5.77512200354742    8.99579124522488    1.91631720599377
C         6.67862376173287    7.05345031292931    1.93705181065421
C         7.45034495656936    7.25614612253384    0.75218585318180
H         7.33539226025574    8.23107166785204    0.26660172049814
C         8.89990256284438    6.68027165459559   -1.01496336221678
H         9.07527135074998    7.75448501515863   -1.15435288422352
H         8.26966723948169    6.30166780199014   -1.83331243885381
C        10.21478872684752    5.90037688752628   -0.99626216223605
H        10.68540990892764    5.88222516674722   -1.98815512437167
H        10.89811080824900    6.37506900444186   -0.27917108971022
C        10.42428372138052    3.54616661375645   -1.06390969696253
H        11.09335249016519    3.68116262992837   -1.92049807099575
C        10.25591425928610    2.20809213521439   -0.59973301927364
C        10.80448043274998    1.11593403796556   -1.29358186690159
H        11.29498798435817    1.29759154218956   -2.23892295606914
C        10.71365921425181   -0.16962632575766   -0.80372984768354
C        10.08171523447825   -0.36882156080704    0.43283045775548
H        10.00886458684789   -1.37199965261453    0.82596944100949
C         9.55658301203616    0.67729931569095    1.15536970756061
H         9.06801538612171    0.51199915079355    2.10491971113672
C         9.60860400268258    1.98414976636558    0.64903894498332
C         4.16195938341308    8.90940608253268    4.10958439338374
H         4.41047577735348    9.13824155792824    5.14432354116916
H         3.13084442154156    8.56044573539750    4.08898599738624
H         4.23112964058181    9.82079748994508    3.52334159491016
C        11.26736228282386   -1.33792532316563   -1.55255393506103
H        11.80456199988996   -1.01770952479887   -2.44024429122907
H        10.46010847371819   -2.00242988781374   -1.85717306618528
H        11.94272375733356   -1.91041292417555   -0.91956761871889
C        11.47848429560488    4.72968115294491    2.53516900377874
H        11.23615215632877    3.87181208185288    3.16905339093977
H        12.21574951856294    5.35953746062595    3.04178024869029
H        11.90132123610577    4.37029670514785    1.59710781568786

