61
CSD_code = QEPBAO | q = 0 | S = 0 | Stoichiometry = C14H24N10O12Zn | MND = 6
Zn        2.21035458128285    2.01490246255298    6.07484006436935
N         7.21021394087301    2.31964423885070    1.44738969697193
C         6.02056719718345    2.90932001214230    1.73327590675519
N         4.94354885013194    2.78000446075505    0.99248262104512
C         5.00353440897130    2.01537234562818   -0.10872796972481
C         6.20703517003331    1.36284766903202   -0.52396521444998
C         7.39260178427952    1.50212877010801    0.29284690553309
C         8.36239369547682    2.49816015868140    2.30817100506806
H         9.17257227991465    1.92447067608443    1.85603745827214
H         8.16540093085269    2.10888802977085    3.30908248886767
H         8.65029647843028    3.54906633050429    2.35842098418245
N         5.95395576439688    3.72369749361365    2.80511628535894
H         6.67037271536110    3.61487429392374    3.51055174767226
C         4.68188357118717    4.12808587237675    3.34928287206065
H         3.91323987788128    4.00187065245557    2.58831816208168
H         4.72676666396625    5.17882834736051    3.64973761601500
C         4.34063585293560    3.27595809046280    4.58756133343317
O         3.14040841843327    3.31594045253669    4.96646585616759
O         5.25483724083239    2.63752149841995    5.11975535475530
N         3.90905017174920    1.86446041379527   -0.84094005611528
H         3.08721323069376    2.40614517364052   -0.63031412573843
H         4.07619813894028    1.32251527996324   -1.71566191564720
N         6.35433325430944    0.68497272707432   -1.67263833010451
O         5.35889071221021    0.51532023491374   -2.42395191322974
O         8.47381618247772    1.00132140219460    0.09276827369017
O         0.46240593528682    2.47740415935387    5.08951024987034
H        -0.20825032724717    2.13503798691006    5.75920209057134
H         0.32390425813325    3.42661214827695    5.02904350808257
O         1.85626703963363    3.53342512098981    7.56987398905544
H         2.01000845281739    3.12942982687233    8.43052558908279
H         2.52904475781141    4.21272652883632    7.45409492134536
O         1.28030690933675    0.71421955943912    7.18401818991446
C         0.07988943015075    0.75422386686177    7.56220412228474
C        -0.26208327378023   -0.09695421894406    8.80091916068486
N        -1.53446206240440    0.30803794452874    9.34393934849310
C        -1.60173680000296    1.12173997099089   10.41623615693026
N        -2.79109457221598    1.71268988794487   10.70073543650484
C        -2.97421450953272    2.52960303650594   11.85558400047536
C        -1.78968186905144    2.66694440362746   12.67422401995616
C        -0.58632964568579    2.01331134683562   12.26028456215277
N        -0.52567925545889    1.24924305970250   11.15873005607197
N         0.50729887114371    2.16251998782270   12.99412582856564
H         1.32877290209613    1.61995670737825   12.78434285147598
H         0.33955379835512    2.70405537225095   13.86897194862358
N        -1.93788672245106    3.34412376952028   13.82318981682797
O        -0.94333219376718    3.51215816043106   14.57604699983854
O        -4.05514480274887    3.03150720648557   12.05445021683014
C        -3.94217046152889    1.53631098158905    9.83803798385514
H        -4.75217779074261    2.11107378602615   10.28911552236528
H        -3.74295539614652    1.92567141546512    8.83760317489834
H        -4.23164862023444    0.48587913654554    9.78689398894858
H        -2.24991163713611    0.41786678322830    8.63766027126276
H         0.50609528585973    0.02971084188734    9.56227601188120
H        -0.30687295547636   -1.14791016767946    8.50117077840295
O        -0.83419840875188    1.39204630683857    7.02897855280229
O         3.95889569389177    1.55183347971647    7.06001712581062
H         4.62938214567732    1.89389738375596    6.39019462919938
H         4.09683123584060    0.60250648421360    7.12025737163203
O         2.56608094369227    0.49633407410271    4.58019877148540
H         2.41621580462871    0.90057115429002    3.71897975229450
H         1.89215672720163   -0.18222457939715    4.69335789426058

