43
CSD_code = QEPCAP | q = 1 | S = 0 | Stoichiometry = C18H18N2O4V(1+) | MND = 6
V         0.24224460661611    0.85080816120202    7.14099266830681
O        -1.58238778734558    1.01992252959926    6.61512022425240
O         0.47784264851287    2.41963594408233    7.63179386819319
O         1.02072993864756    0.76644048038667    5.82774800329902
O        -1.34271197426242    0.43433019423184    7.82514499129475
N         0.37098467809312   -1.16666932908267    7.14258825261616
N         1.58914269519652    0.46737869935302    8.65272486110694
C        -1.92256409715447    0.12644357415516    5.63046906745655
C        -2.79862455451609    0.62757723597222    4.67094073410809
H        -3.10826060643422    1.66034616711597    4.74842249403927
C        -3.26385715372190   -0.18398118097022    3.65408852773612
H        -3.94044859195968    0.21718423619755    2.91638614289266
C        -2.88071138184235   -1.51847229668108    3.60454361622371
H        -3.26364839723448   -2.16243507888794    2.82948954084666
C        -2.00472670431653   -2.01792839226229    4.54379877400162
H        -1.69799845197435   -3.05156512094013    4.48765729041587
C        -1.46987002728455   -1.20981195638706    5.56282609727623
C        -0.44043214052937   -1.79765374805107    6.39243737215530
H        -0.33888259675788   -2.87993178412200    6.28199522719925
C         1.46373916533105   -1.81172816926391    7.84153558692788
C         1.67275273008409   -0.90945317965615    9.07077808862503
H         0.85601492319687   -1.09602731887780    9.78293093197295
H         2.63047252422415   -1.12953671795618    9.55956183144488
C         2.35168948954586    1.33340364108228    9.22324811596244
H         3.07648978739810    0.98581366359501    9.96725381443193
C         2.30390413320477    2.74178804082394    9.01350858439342
C         3.20002835158239    3.62712541062310    9.63441924196731
H         3.99113900233778    3.22435697572456   10.24890843433145
C         3.07388412620256    4.98501968161566    9.46030992778075
H         3.76548377295047    5.65940497650133    9.93885409295071
C         2.04549751201252    5.49600785892590    8.66686380562187
H         1.95155698023414    6.56329698025556    8.53798297338095
C         1.14729879194547    4.65852282016875    8.04102884350422
H         0.34719684852368    5.04477959131896    7.42658779215298
C         1.26634437341913    3.27081384016784    8.19344716941463
C         2.69495936531788   -1.75196284903800    6.92472413228248
H         2.53757490889915   -2.37246580851596    6.04560218989519
H         3.57281489037984   -2.11411038335589    7.45330900583878
H         2.86546031190497   -0.72531347102611    6.59322502212361
C         1.17768923562105   -3.24773131695135    8.28787315308249
H         1.21513499218304   -3.94018632308652    7.45145124821290
H         0.20352691638382   -3.31688054540550    8.76797465311320
H         1.93552676538412   -3.55855573258121    9.00205360716794

