61
CSD_code = QEPDIA | q = 0 | S = 0 | Stoichiometry = C20H34MoO2P2S2 | MND = 6
Mo       -2.33660837971240    7.24147395926246   10.34184830943386
S        -2.93407421358568    9.55964273528983   10.23659837656742
S        -0.10545394845081    8.11325771246539   10.39804533133887
P        -1.52938373970984    6.20184646717290   12.34445974502349
P        -3.67805407590144    7.23966492496921    8.35586049322352
C        -4.08871546714439    6.81044324673558   11.04114723085788
O        -5.11701504413562    6.62801425150301   11.53115876878770
O        -1.22016989694235    4.59950248546228    9.20411849912847
C        -1.66910609912719    5.55137940163041    9.67646095507867
C        -1.46024832688434   10.47929063432114   10.23498664280483
C        -1.51739708519182   11.87064237089709   10.13960853202109
H        -2.48396796777334   12.34083134864589   10.03303640746858
C        -0.36197553119571   12.61584350248378   10.19361202776856
H        -0.41280964333252   13.69231004847139   10.12353499852531
C         0.87166666131495   11.98605529056661   10.34376321812946
H         1.77561734201603   12.57507368307786   10.39078508939912
C         0.94280271194586   10.61449139613668   10.42710037554675
H         1.89032396902616   10.10705880088327   10.53407882395763
C        -0.22066908760086    9.84617331326757   10.36200292742286
C        -2.87456786010568    8.14212781688174    6.96594227828872
H        -3.41951077181299    7.92989480096186    6.03997050958124
H        -2.96502364178210    9.21127004907824    7.19717653344961
C        -1.40900688327642    7.75959710244050    6.81993545786411
H        -0.93887532284674    8.34012765258187    6.02816242242857
H        -1.30254133671864    6.70234688278433    6.58141019216841
H        -0.87126570522717    7.95378810974133    7.75147799024346
C        -5.33405645928374    8.04681402399255    8.43091574893178
H        -5.91165545703479    7.48794788050130    9.17492253613968
H        -5.15907720567494    9.04651851711244    8.84423593170006
C        -6.12020623326986    8.14983177862217    7.12840359636672
H        -7.07271603211405    8.63959513664387    7.32315159716346
H        -6.32996831925331    7.16818869305676    6.70974399016194
H        -5.58633479252400    8.74089016192706    6.38836158267907
C        -4.03006766273492    5.61999848557401    7.56404449093375
H        -4.52923171675154    5.80049648471278    6.60650265346368
H        -3.06203909809059    5.15328398802571    7.35951431104366
C        -4.86798494390515    4.70851764862696    8.44861069467629
H        -4.97917790594680    3.72871534577469    7.98782268310456
H        -5.85964689937781    5.12492653112713    8.61268743756362
H        -4.38396064387170    4.58224919890100    9.41704125849316
C        -1.24938664322185    7.41650865505297   13.70012819499629
H        -1.08843927118213    6.87417033809878   14.63780570215285
H        -0.33371892143196    7.96349121754312   13.44136621555493
C        -2.41615309378708    8.38344318106800   13.83829038176363
H        -2.20875227444778    9.12614400894605   14.60655962442141
H        -3.33100145354773    7.85704552210644   14.10627630289082
H        -2.58923967520832    8.90702481157004   12.89458445515764
C         0.09170243115755    5.32674923972879   12.26998747444530
H        -0.04162629009558    4.50119136767125   11.56276769244276
H         0.79175560156840    6.03369458628851   11.81091599026830
C         0.66294605623276    4.80350938906996   13.58328427140259
H         1.60661774735549    4.29764731378709   13.38683070515902
H        -0.00706976747792    4.08758424078573   14.05375550946432
H         0.85782284028953    5.61374747735943   14.28139074355229
C        -2.62673418006710    4.98991256992946   13.18225937043494
H        -2.17607048331740    4.71576322250955   14.14164789181643
H        -3.56892051094028    5.50727709386333   13.38548022730479
C        -2.88718061865098    3.75402614064095   12.33355483410960
H        -3.61196408719729    3.10437152504592   12.82061985970268
H        -1.97204004945752    3.18772342809047   12.17429329872853
H        -3.28369464248572    4.04685280863738   11.36146060523678

