62
CSD_code = QEPHAW | q = 0 | S = 0 | Stoichiometry = C18H34MoO4P2SeSi2 | MND = 6
Mo       -0.18126232239614    9.51943782468217    2.61951584449077
Se        2.91661705761119    9.36513890723195    4.51870439792370
P         1.60977076086639    7.95856006974688    3.32224869328882
P         1.65666184194614   10.92041595849333    3.48507836098002
Si        0.88115254783946    5.24892754850335    2.44032835255682
Si        3.37213642271636    5.58965536855947    4.62226924216207
O        -1.48145655810269    8.87056213586258    5.35233853124498
O        -2.37377343600515    7.60342432069954    1.59795323047244
O        -2.19202494758885   11.81847500334246    2.18623936563000
O         0.48093261987107    9.72517407151602   -0.39944832419745
C        -0.93394509707058    9.18686417114079    4.39892990140438
C        -1.53742730386502    8.28320529113112    1.98278972044203
C        -1.44811954363111   10.96008976589175    2.33589905901626
C         0.33751124973342    9.68563355001396    0.73558782096982
C         2.04471454309842    6.35332721346601    3.49196224515252
C         0.74269385048461    6.00045868326139    0.69357873634103
H         1.71674359623503    6.06262981698380    0.21560483764014
H         0.32617070183462    7.00462711642248    0.72503807362254
H         0.10178221812885    5.39999407903395    0.05541633583908
C        -0.79540110295256    5.21060465739029    3.34963919022303
H        -1.05039774729669    6.19628905269139    3.73392628903123
H        -0.77241113879108    4.52673900964618    4.19294187434277
H        -1.59888881800646    4.89554981348632    2.69130224870830
C         1.51246031539044    3.46932460185574    2.19784652963811
H         2.35810695598632    3.43669320009804    1.52023288957872
H         0.72418416379047    2.86542882142995    1.76092074031412
H         1.80913735412442    2.99676787244835    3.12575306838663
C         2.45440887656913    4.38423898318708    5.78499444652979
H         3.15997090966623    3.80490373005391    6.37210182460478
H         1.82966888032469    3.68725849197618    5.23846877867122
H         1.81379584277080    4.92131478514621    6.47797925673332
C         4.65078040378447    4.70601900988532    3.51461538755180
H         5.47222547532571    4.32415107735272    4.11265924140785
H         5.06984649986552    5.38177595409941    2.77534015039883
H         4.21352082384942    3.86851785584592    2.98494331844995
C         4.35249668798334    6.76794729745648    5.75532485988740
H         5.02033526698653    6.19887857192078    6.39549313877411
H         3.69680735300626    7.34771680916193    6.39981584123734
H         4.95905144809193    7.46860004642771    5.18733718797284
C         2.91830061046533   11.70417704868908    2.31109744015056
C         4.00782833966944   12.46523887008807    3.06204481464793
H         4.44857372872644   11.83379625912898    3.83705097125994
H         3.62551633856526   13.37313253128022    3.52212794937861
H         4.79917216866183   12.74852355864664    2.36946306587413
C         3.56597147207179   10.57228580714514    1.50892692649944
H         4.24989248083725    9.99148525299740    2.12905725584528
H         4.13729353686078   10.98518078518408    0.67901014857754
H         2.81296403704231    9.89788592361809    1.09417075614517
C         2.15913340070349   12.61520888919290    1.34615513517694
H         1.75026495601501   13.48797010195878    1.84679369532024
H         1.33432084173047   12.07584674989212    0.87802947981478
H         2.82833535767242   12.96136888011392    0.55947123109818
C         1.44056816331234   12.14839680325990    4.87744345516883
H         2.43372379284491   12.37127854111427    5.28957475473356
C         0.75495172477049   13.42266538610892    4.39383519895233
H         1.42971949885674   14.06483886539857    3.83370067303393
H         0.39114419044890   13.99175505324866    5.24819601833994
H        -0.10050615173870   13.17402267852771    3.76390116094096
C         0.58881092784730   11.50466414994581    5.96648359385335
H         0.98340756413136   10.53069193596223    6.26424113317676
H        -0.43631376860533   11.38136928714239    5.61668538508560
H         0.57045013693706   12.13999610381110    6.85046906950263

