60
CSD_code = QEPHAV | q = 1 | S = 0 | Stoichiometry = C21H30BN6OPt(1+) | MND = 4
Pt        1.67692195267322   -4.30865876781407    2.91085130725228
O         3.09494595218737   -3.79165784315677    4.56076081796095
C         0.31215581202550   -4.65692649716989    4.33363978541303
C         0.60903426170906   -5.51393074237593    5.39367959636354
C        -0.26337354108395   -5.66770934929939    6.46052763449625
C        -1.45182955740850   -4.96087851984985    6.48880662987171
C        -1.76859923868257   -4.11333374333416    5.44128454328403
C        -0.89695707570850   -3.96686408048347    4.37436499800819
B         1.19370612010851   -2.53243352747875    0.34541283621208
N         1.58335352749324   -1.50777888766295    2.67627221214873
N         0.78174193413378   -1.71822108080958    1.61746467826268
C        -0.39745108036838   -1.15303541452727    1.88905119856983
C        -0.32529428223909   -0.56201541315842    3.15049729123783
C         0.95279249992688   -0.79993855619494    3.62631694025734
C        -1.54975013143518   -1.19700305675907    0.96267679355639
C         1.59276059435991   -0.43033920169191    4.90731126284491
N         0.45268714783712   -4.69560585146169    1.42011325114363
N         0.38242816370632   -3.83919512981731    0.37619168947628
C        -0.42018081738850   -4.37070510381019   -0.57034982041059
C        -0.86983166891135   -5.59214713912943   -0.10481203044213
C        -0.29033595888060   -5.76640232483350    1.15370566335187
C        -0.71256714517616   -3.72601263138973   -1.87454197295389
C        -0.41487202795458   -6.91522311647737    2.08527666038337
N         3.10350151689160   -3.76064337787975    1.38280498368897
N         2.67440343255768   -2.88629445522701    0.44492719516329
C         3.69517178271580   -2.59399559828126   -0.39253827318983
C         4.80288558222992   -3.30184561745290    0.03447800758820
C         4.38004963016084   -4.03086824284766    1.15054372382825
C         3.57934726537672   -1.66273647673192   -1.54099933204739
C         5.14125032551012   -4.98395956714606    2.00118407553549
H         3.86911310738787   -4.36425638029551    4.47460635882926
H         2.62922832447618   -4.04686269203489    5.37221234923948
H         1.51820050079439   -6.11027137666858    5.38333625571951
H        -0.01431885655635   -6.34363291574958    7.26527863733430
H        -2.13265752141116   -5.07857653973276    7.31765927874745
H        -2.70122249423544   -3.56845382638374    5.45125752299956
H        -1.17784961263137   -3.31106317066712    3.55885949816498
H         0.95658552049891   -1.89891151083550   -0.61818029598935
H         2.55593005919701   -1.78696107587617    2.65676044224069
H        -1.10887749070413   -0.03549678366923    3.65361042263030
H        -2.36744065987397   -0.60198392583141    1.35776338826351
H        -1.26390354896779   -0.80895559961262   -0.01278460745776
H        -1.89177779366574   -2.22201442922168    0.82861266955577
H         1.61976327467613    0.65185186749758    5.02055927238738
H         1.01623757788246   -0.83335086504708    5.73791615311693
H         2.60640199911242   -0.81805370376862    4.95932886516985
H        -1.52160187804104   -6.27359364823854   -0.61014425985530
H        -1.37889637170637   -4.36363044668209   -2.44770146892914
H        -1.18603717689341   -2.75600015309347   -1.74086350623820
H         0.20386005697898   -3.57968984374315   -2.44264244923726
H        -0.56180103006165   -7.83459355740078    1.52560088612608
H         0.48250616274133   -6.99835445144125    2.69697343094799
H        -1.26804290944589   -6.77478600785271    2.74754346100269
H         5.77884218639031   -3.30191687194586   -0.40355185584843
H         4.55732566261225   -1.51905024330063   -1.99063759369158
H         2.90637982068737   -2.06663708367738   -2.29535417843389
H         3.19007590128594   -0.69727362880873   -1.22362240861792
H         5.76637391077381   -5.61967127326015    1.37895831510144
H         5.79467609466224   -4.45262929535481    2.69445339859032
H         4.44783220766462   -5.61832125305339    2.55668967128437

