99
CSD_code = QEPHID | q = 0 | S = 0 | Stoichiometry = C46H49MoN3 | MND = 4
Mo        2.76380495229099    6.33779095315058    7.63063233557769
N         3.73302906156149    7.64847500480977    7.00919616883405
N         1.87244174271641    5.14941374468769    6.33060823590722
N         1.52367887553838    6.88588651894255    9.08875176909258
C         4.43358437585572    8.74205165604325    6.65169436748965
C         5.18129723191843    8.77671897376340    5.44776483806289
C         5.89947495059350    9.91442821699715    5.12381541485559
H         6.47077630397029    9.93750663452409    4.20761634810580
C         5.89869277250509   11.02480363320831    5.94689066547559
H         6.46263949872845   11.90464117889047    5.67469716482651
C         5.16738095339975   11.00119854535932    7.12079906901683
H         5.16529944555823   11.87311842837628    7.75828932222788
C         4.44047612200592    9.88538558967515    7.49235981959411
C         3.64311112263397    9.89174458110015    8.77417117408286
H         3.23023736088066    8.88062654188028    8.91938713030240
C         2.47510357021848   10.87537984632413    8.66693913135767
H         2.83924172468811   11.88866084969206    8.51116409815298
H         1.87895501701065   10.85679011661030    9.57667971261832
H         1.83102769749653   10.60772366159046    7.83143628608149
C         4.52038739646516   10.21944758678423    9.98409725506812
H         5.37835766457869    9.55135285520384   10.02193069894541
H         3.94719431761709   10.10342375014408   10.90201368491292
H         4.88600656014278   11.24235160375307    9.93863180897568
C         5.19626848430627    7.58949101364351    4.51355235740964
H         4.51984122027819    6.82592097778750    4.92405600092422
C         4.68647645584630    7.98123955125542    3.12406588807995
H         3.74202225622786    8.51404634910108    3.20080264613348
H         4.53316150468396    7.09260368032186    2.51528373580258
H         5.40056941162084    8.62534441935697    2.61654698632754
C         6.59815469628235    6.98376056108443    4.41272989949083
H         7.30092238131525    7.70769262331291    4.00675021489478
H         6.58427221995890    6.11433197234846    3.75897490183470
H         6.95563109963058    6.67065665965729    5.39082546845693
C         1.44711358314492    5.29672281936488    5.02625661922123
C         1.64771414229016    6.52394641024100    4.37721277061852
H         2.16560399677298    7.32053922114412    4.90415045465374
C         1.19222477439486    6.72214047899367    3.09058395344557
H         1.35391313462014    7.67601171106486    2.60970332349070
C         0.52729840274391    5.71199324755376    2.41273738043489
H         0.17349871777820    5.87163456463701    1.40575101663266
C         0.31558280033051    4.49879393382091    3.04590245529427
H        -0.20958313448993    3.70584863495602    2.53304896544607
C         0.76165583244293    4.28783866688207    4.33512266299136
H         0.57179545244869    3.34188030465066    4.82344860983749
C         1.76111348620811    3.89666446223449    6.95198721542085
C         0.90748242240939    3.76198736110855    8.05074839190993
H         0.26631853795226    4.59566984118916    8.32986399623766
C         0.84714946789206    2.56555237177100    8.74502733291005
H         0.19311622135392    2.47622033286186    9.60025962223416
C         1.61709292056069    1.48811521897676    8.34178388671430
H         1.57209563366972    0.55729138041939    8.88646194626726
C         2.43729832189440    1.60288398620908    7.22811184344292
H         3.02941838907695    0.76016706312424    6.90350148014774
C         2.50796092833038    2.79145261757730    6.53031068181071
H         3.15189157684141    2.88721342063611    5.66687176862331
C         1.60309707943273    6.44457806171115   10.41560424926061
C         2.78251497702283    6.59986432841423   11.14484010232360
H         3.61813373982970    7.10527866092761   10.67461570364600
C         2.87111509218511    6.12747218707425   12.44014557587356
H         3.78838161300379    6.25722090439156   12.99656886806410
C         1.78763028141712    5.50036068818569   13.03442548519059
H         1.86170588329236    5.12887095510670   14.04526031329471
C         0.60452184616484    5.36455669761363   12.32760108573967
H        -0.24883629126085    4.88724121342590   12.78732071932924
C         0.50536758934223    5.83915103732621   11.03409780568908
H        -0.42623365276799    5.74661769546735   10.49030679238656
C         0.53283568255201    7.80908447600243    8.79824556225850
C         0.09778917445228    7.95743548035323    7.47395708100993
H         0.48258652134212    7.28957047611435    6.70303860583697
C        -0.84307535245593    8.91058102020694    7.13878665036526
H        -1.15984450568839    9.00512020824901    6.10985448045254
C        -1.39305929669904    9.72769188594214    8.11351053662606
H        -2.13405444980808   10.46669226021781    7.85059231396678
C        -0.98657007272398    9.57960853937886    9.42978700406288
H        -1.40995760875128   10.20993847548099   10.19844963695615
C        -0.03539656316319    8.64083850164455    9.77400900728839
H         0.28687261891880    8.54808428173835   10.80189916273306
C         4.01709778008746    5.19788102260285    8.57952548765855
H         3.50127356236298    4.31355756573168    8.98992775896122
C         5.49289044995833    5.04937284547349    8.80037339150248
C         6.23706352902310    6.36908724453644    8.55273850840923
H         6.04343700825162    6.73662610494777    7.54887668100421
H         7.30953840181525    6.22574152637639    8.67499869124941
H         5.89991366567329    7.12392279373167    9.26109660484729
C         5.75969229492450    4.60543023963144   10.24664036842287
H         5.31590537898601    5.32477562122686   10.93051068649646
H         6.82749568058824    4.55783956787863   10.45082046873199
H         5.31332713979136    3.63238646033146   10.44370563867438
C         5.98396471551553    4.01943372691510    7.78440411844214
C         6.78511082419374    2.93545655653490    8.11845083859967
H         7.10378432080083    2.77781608384568    9.13637390373855
C         7.19503553016877    2.03110443614723    7.15145904478016
H         7.81667577067786    1.19419620426358    7.43647742050897
C         6.81717718344634    2.19355570330867    5.83213732996970
H         7.13742478285438    1.48692024216428    5.08060864527140
C         6.02207425658093    3.27360388669893    5.48501905969967
H         5.71995874160061    3.41441809700695    4.45658825328525
C         5.61049167120291    4.17042484557963    6.45176746272330
H         4.97136894856290    5.00631486139754    6.18068191792195

