68
CSD_code = QEPJEA | q = 0 | S = 0 | Stoichiometry = C26H38ClOsPSi | MND = 9
Os       -0.83732781911541   -0.00038898646651   10.38224101536419
Cl       -0.58546885686801    0.81146149921083   12.57234598464759
P        -2.06469985170902    1.98392423077878   10.06324978620598
Si        1.43813861082359    0.80957286671103   10.37623826102158
C        -1.78971855541647   -1.87335005735408    9.40107639865664
C        -0.45226076010843   -2.16092978346854    9.84030316603831
C        -0.46599240785286   -2.15560465648252   11.24586234085997
C        -1.80928148056297   -1.94911464397991   11.67393266881279
C        -2.62072662128275   -1.80895029738662   10.55029708643652
C        -0.96353890324757    3.50193896174281    9.84553832231808
C        -0.48380904527414    4.01958749559037   11.20100314977785
C        -1.49354275336802    4.67118748304821    9.01445702582328
C        -3.24363898316714    2.44525730968299   11.44722304283044
C        -4.24211572903416    3.54954668796833   11.11448147689532
C        -3.96277336314597    1.22125328291842   12.00924908024321
C        -3.09262461004939    2.03751071839629    8.49954799144411
C        -2.21834664315858    1.80532028819942    7.26852330730790
C        -4.22151280085445    1.01201959980829    8.51011596468423
C         2.53311662152564   -0.66760594632347   10.87099823923514
C         2.66031349462823   -1.02077801043255   12.21156758008492
C         3.42539278204863   -2.10654813067064   12.59648105590241
C         4.08241735093019   -2.86393773904499   11.64050605777547
C         3.97634185719511   -2.51961894570241   10.30352782442976
C         3.20937357758384   -1.43127627586665    9.92669266414193
C         2.10307465694954    1.47610206061348    8.71055297803914
C         2.85481604981273    2.64474612095160    8.67980283402617
C         3.38354812241389    3.13260071273407    7.49785442023692
C         3.17133224472200    2.45192364394899    6.31139638452367
C         2.42571827473237    1.28515933203124    6.32010858069037
C         1.89859116404287    0.80986657928322    7.50729327599448
H        -0.56517969141134    0.30416952305060    8.88918533350036
H         1.88048499552434    1.87887276067909   11.32062615863438
H        -2.14032298181935   -1.97185304901742    8.38198394136617
H         0.36662177118122   -2.47981014172210    9.21008886374615
H         0.35749998613545   -2.42921225192281   11.88895480835532
H        -2.14237728101013   -1.96639756762840   12.70049425109031
H        -3.69302244684847   -1.69848850528989   10.55036342513456
H        -0.09524338190786    3.07915643032701    9.32111456128734
H         0.39648390582694    4.64344557846381   11.06290891494775
H        -0.21695531988756    3.19620267955256   11.85760217696524
H        -1.25132821869745    4.62312181868723   11.68092700222489
H        -0.71256495672093    5.42852087941987    8.96327419762462
H        -2.36682435386811    5.13315839519948    9.46631120195136
H        -1.73785976564923    4.38355825470677    7.99739151598701
H        -2.56748023172952    2.80348336830976   12.23189620736724
H        -4.80948806656797    3.79372803542323   12.01202127144606
H        -4.94915752539170    3.23807334853352   10.34981387934649
H        -3.74389358092437    4.45451626787232   10.78133571360653
H        -4.52638557544655    1.50455242033758   12.89718022712771
H        -3.24131445004770    0.46469791089261   12.30464974856645
H        -4.65547566079819    0.78720493631173   11.29329791666654
H        -3.52229900593777    3.04341556627739    8.45386732855093
H        -2.75339481957631    2.11034165384535    6.37016154641256
H        -1.97689268268427    0.74920935524641    7.17815730896844
H        -1.28014657535674    2.35146816868294    7.32142831634498
H        -4.68955848101869    0.97032219951591    7.52716468882516
H        -4.99229800791696    1.26047532653477    9.23465604482973
H        -3.82744271129825    0.02493943251419    8.73971842458411
H         2.14568641244873   -0.43527814844111   12.95996206886502
H         3.50909094742287   -2.36651410721718   13.64287538615644
H         4.67723959508123   -3.71629297592728   11.93712549442890
H         4.49400844805211   -3.10207437454649    9.55373017191785
H         3.14083233817739   -1.16066862647147    8.88300286607281
H         3.02955543371574    3.17967309782070    9.60154767141666
H         3.96424063539388    4.04438954378835    7.50021518842719
H         3.58316581789260    2.82784354240164    5.38573851133231
H         2.25542431229618    0.74694683990858    5.39795081512876
H         1.30747555018124   -0.09517298655166    7.49880888635631

