41
CSD_code = QEPMAA | q = 0 | S = 0 | Stoichiometry = C20H20Hf | MND = 12
Hf        8.48636410396833   13.59490781870951   12.69514454683000
C         7.27961006974010   15.18199280876057   13.57123958379579
C         6.59785806704879   16.03845906804979   14.09468352488950
C         5.77235727646352   17.05463785161026   14.68303742840882
H         6.32640109052655   17.88735315413127   15.10377500266476
C         4.43242685477912   17.36065489172969   14.06497143843876
H         4.10444334523940   18.38934789740627   14.04527289353287
H         4.13981263580862   16.79064770367469   13.19588118470347
C         4.49827042490819   16.65317926400886   15.37998497289403
H         4.25225301406777   15.60223213643449   15.40512746897299
H         4.21657043745998   17.19182566962670   16.27244409424289
C         7.73916510917868   11.49910786201213   11.36407197620632
H         8.24037251644316   10.54164573856395   11.38598364844075
C         6.56020212816966   11.82343909587189   12.06393248009767
H         6.03987508568412   11.17656765965292   12.75347153050684
C         6.11300582502144   13.07342682023372   11.61516621995604
H         5.18431259420822   13.54892790831059   11.89251884365534
C         7.01810307582383   13.54331103574465   10.63874870923492
H         6.85563047425882   14.39512642141527    9.99163105741854
C         8.02111776365765   12.55707034342334   10.47204452535767
H         8.72993848221398   12.51465111960929    9.65561459480991
C         8.75898016497478   12.18334645071301   14.33132135638713
C         8.86504288888130   11.42039205328907   15.26889778543492
C         8.99680158611574   10.49008579583452   16.35407666652732
H         9.61326928125257   10.84916426709001   17.17162667105346
C         7.83078021629990    9.60429034026331   16.70919218793482
H         7.65095591041565    9.39556310297425   17.75324273983234
H         6.93136590869193    9.70084263145829   16.11980886690862
C         9.03892626192548    9.01329215413585   16.05707341318874
H         8.95942655362434    8.70739329473079   15.02465603207546
H         9.69698851109956    8.39428187703809   16.64865490880902
C        10.65080643433324   15.05966517209056   13.44704903227418
H        10.81246655985306   15.53574968806361   14.40156168543185
C        11.09413074210301   13.77919265170430   13.08353008517702
H        11.67767306538788   13.11392446354569   13.70240762929486
C        10.77264328606041   13.56851620594676   11.72456137477481
H        11.15366347298570   12.76178471461453   11.11143993190861
C        10.14140848416281   14.74768701714322   11.24515589080279
H         9.96464813373820   14.99020746757313   10.20514352884960
C        10.07639506651305   15.66412099250820   12.31619509330227
H         9.75473709691287   16.69278739030411   12.24675939497305

