47
CSD_code = QEPSEK | q = 0 | S = 0 | Stoichiometry = C21H17ClN4NiO3 | MND = 4
Ni        1.30090283114926    5.54515640331640   19.69524858746550
O         0.74659500880026    6.47004077072088   18.16524458847746
O         1.81662564396468    4.68887904035745   21.28033231953726
O         3.11450485589270    6.55647219017101   24.79409593785941
N         1.53436969702112    7.18835869198243   20.46953124709552
N         1.94741623210094    7.48412611355361   21.62948631356642
N         2.54313205722241    4.40984152727509   23.41687756019528
N         1.07303553932369    3.80895475209760   18.78787729857801
Cl        1.01699341467210   12.18642474274028   19.23628936149066
C         1.21568887804902    8.23561697325291   19.60280662551021
C         0.79019480681282    7.76242717301884   18.33821952408340
C         0.44101225677409    8.70858918006085   17.36290325659667
C         0.51668474838179   10.05310450374142   17.65541119077055
C         0.93703185122711   10.48520449087387   18.91184510717342
C         1.29144170577650    9.59200801461802   19.90179579505147
C         2.19076912518924    5.19023385436706   22.37788826769902
C         2.28204114939860    6.63002357940139   22.58528474043565
C         2.74988122970677    7.22150104767788   23.82609187737590
C         2.76923797613872    8.72557000347227   23.86762226467302
C         2.54530649940179    3.02144632744594   23.51746762813897
C         3.20654462759735    2.46591157555075   24.61423150350372
C         3.24977105984238    1.09675346636246   24.78269321592640
C         2.63293625661798    0.25997103012468   23.86570973186878
C         1.96434633774856    0.80809994001840   22.78505918524880
C         1.91386203580072    2.17878113199639   22.60580640717311
C         1.94341699320138    2.81535918749341   18.97549818733533
C         1.79322303165951    1.56819663800088   18.39347759664977
C         0.69848466642386    1.33646114840330   17.57646039675106
C        -0.19905613412987    2.37192251419333   17.37188062472355
C         0.02417589164841    3.58924616282164   17.99354640863360
H         1.46996667070473    0.16470997322705   22.07132018483015
H         0.24948427363242   10.78447088529375   16.90847363410490
H        -1.06322089293306    2.24241909560032   16.73954008495596
H         2.52387091686608    0.79717107943871   18.58104947831514
H         3.68310556187909    3.12101650021617   25.32889643709985
H         1.37673538694289    2.59318461677296   21.76890954333394
H        -0.64887759030886    4.42329692781362   17.84278298124808
H         2.78820796712360    3.01962441798807   19.62129399528850
H         0.55049258811183    0.37477223576410   17.10844759780943
H         1.61677862072448    9.92583085201234   20.87337660843248
H         0.11645173571718    8.37063690078317   16.39174613192644
H         3.76620569013902    0.67922164037326   25.63429791799764
H         2.88759016584974    4.93917158507856   24.23156720525759
H         2.66895208767363   -0.81076740146018   23.99718553008679
H         3.13688739276150    9.05566202878936   24.83539737577118
H         3.41125351067809    9.10769375618789   23.07807597938502
H         1.76664564102376    9.11180273100978   23.70195656456857

