78
CSD_code = QEPYUH | q = 0 | S = 0 | Stoichiometry = C36H20AuCl4F10N3P4 | MND = 4
Au        5.97534432118596    5.49199323367082   12.14296490650038
P         6.35352677172447    4.02349707835045   10.41449320805702
P         4.11223001008737    6.78102031573205    8.17632671775311
P         4.42617847276360    6.63483481685803   10.94697571663230
P         4.92745880334002    9.03258474114801    9.53139913880142
Cl        2.18162428415879    6.92121932888518    7.74096152370107
Cl        4.87000463229964    5.82758513508757    6.66023325882922
Cl        6.64980098886973    9.94380311234551    9.46796291525069
Cl        3.60875012010252   10.49756993499911    9.58126196130977
N         4.76366293340514    8.25162467424133    8.12560540619839
N         4.32065886323284    5.88923991224247    9.49083812137905
N         4.82048786667236    8.20950987313357   10.89743420523547
C         2.78067869161681    6.58214433314113   11.68848183012021
C         2.00871050629504    5.43639335396442   11.54099977770579
H         2.39319599545145    4.61312194543190   10.95602570884729
C         0.75999219434853    5.37727545142353   12.13057902626298
H         0.15376372705822    4.49064338307141   12.01835367520044
C         0.28933631386450    6.45253601453362   12.86769431150136
H        -0.68277469445701    6.40046741472388   13.33470494668027
C         1.05790867515488    7.59783947942135   13.00564385667792
H         0.68459881103272    8.43626582583876   13.57464840131434
C         2.30726801503059    7.66683444216361   12.41818261042149
H         2.91908495497843    8.55410445971524   12.50748781026349
C         7.17445140842901    4.84146617698960    9.03670245437155
C         7.64667425820494    4.09136259420402    7.96094038813404
H         7.53637607558510    3.01469311007679    7.96595408938355
C         8.27090845344091    4.73235198868246    6.90774118535470
H         8.62738731002376    4.15800703099153    6.06587007275924
C         8.44454524772972    6.10768076878903    6.93486277917935
H         8.92930497437736    6.60421645828412    6.10814160447830
C         8.01608592795533    6.84741856864888    8.02541511829005
H         8.17743406961822    7.91395874687899    8.05664639947785
C         7.37995175109319    6.21671908241046    9.07946190852732
H         7.05869137745954    6.78467002837936    9.94674683079988
C         7.53590086862879    2.72698599966314   10.86467360636183
C         8.87420630692075    3.10234566626113   10.98182391530328
H         9.17196141718638    4.10752554089609   10.71095939076662
C         9.80666480937275    2.19242414386911   11.43962910760228
H        10.84288057630390    2.48264474654672   11.52826427233502
C         9.40937622777592    0.91051582215434   11.79085382495397
H        10.13737453438661    0.20380340467355   12.15905300471360
C         8.08119813015611    0.53646053742090   11.67161293496550
H         7.77413072598405   -0.46134397766649   11.94596242140311
C         7.13914940145736    1.44091833643953   11.21238187248629
H         6.10156858486420    1.15071030115514   11.12931525911192
C         4.88786623433979    3.12973020892372    9.85767130969410
C         4.59410752878403    2.88872444844550    8.52095522157574
H         5.24356394281239    3.25614505822012    7.74128796302434
C         3.44088369854147    2.19738910265342    8.19531617042774
H         3.20402120711568    2.01879902094264    7.15712134218929
C         2.59071631810937    1.74147050751001    9.19039753810519
H         1.69227937320943    1.20401259167449    8.92636491029709
C         2.88506298913909    1.98373977380860   10.52280218387942
H         2.21961816839071    1.63867421138257   11.30023438104509
C         4.02809912530370    2.68613877722760   10.86146073623052
H         4.25201238543455    2.90216453939151   11.89876345837037
C         7.35548899086527    4.55292842080782   13.33964916188563
C         8.64090966161579    5.03086278869890   13.54094723222127
C         9.60396107857185    4.32539424313715   14.25616381946953
C         9.28072528780374    3.08519737665869   14.79377910731151
C         8.00009862114170    2.57499696743124   14.61598016275375
C         7.06935858998661    3.31909083676428   13.90227900961380
F         8.98784967476696    6.20523092272245   12.99472415878942
F        10.83910898171360    4.81511596164140   14.40507318971740
F        10.19953659883925    2.37839739771458   15.45763698180136
F         7.68369508489470    1.37105500295198   15.10595952164852
F         5.84368438815098    2.79766698069866   13.71311176463895
C         5.51675800146338    6.88512395277636   13.50458268733422
C         4.47872543992997    6.68791654206533   14.40004783161995
C         4.04632738810507    7.68171588158938   15.27049193835221
C         4.66679330622092    8.92623714846670   15.23877346869806
C         5.71169455392510    9.15557545523026   14.34843593483378
C         6.11864810960556    8.13470476790838   13.49538949626439
F         3.86969726669032    5.48981364267862   14.42220648736259
F         3.03493670640603    7.45742817132018   16.11573001568850
F         4.25607053055702    9.89896702020251   16.05575095659648
F         6.30467496888417   10.35144879152789   14.31221328851374
F         7.11801210352516    8.36660015096347   12.63902709464434

