74
CSD_code = QEPYAL | q = 1 | S = 0 | Stoichiometry = C25H46P2Rh(1+) | MND = 6
Rh        0.55963001459016    2.75789729126428    1.25692156598108
P         1.57510899686916    4.53103512489594    2.38978474935714
P        -1.32525284761599    2.91425156080223    2.55125759028156
C         2.24458170661802    2.62112045084454   -0.20484635793703
C         2.41947360239455    1.68491589464933    0.78999760371891
C         2.14109916875045    0.21069493359285    0.64811815290785
C         0.78857704416220   -0.10441930908831   -0.01705820280502
C        -0.25714175667506    0.94083849812977    0.28731922560513
C        -0.50627638361040    2.04442942614811   -0.50413480711067
C         0.25228303475806    2.40692455478380   -1.75373056752711
C         1.78054220326839    2.29419625382576   -1.60355562634611
C         3.44715413412519    4.55206137938464    2.51103912523855
C         3.84865442865947    6.00633476838242    2.26400610186463
C         3.05538306274639    6.44449204742993    1.03979127232196
C         1.59100235980726    6.02755757795655    1.24243895304869
C         4.14012431567401    3.85251919337807    3.67569660697847
C         0.85525232165088    5.79576081192687   -0.07919228342346
C         1.85108563844991    5.45108818477674    5.13161707663567
C         0.87378449199535    5.32469971449409    3.96287247811303
C        -0.37078614572023    4.61823885237260    4.51780988024469
C        -1.57032136096053    4.44487909417856    3.57558593424959
C        -1.80796720051228    5.69758229700253    2.74039746257059
C        -1.25207986814459    1.60191017322945    3.88736205520336
C        -2.43197536171145    0.66220844414535    3.63145259233518
C        -3.58105844225962    1.53703361835426    3.15271519898045
C        -3.03971919083848    2.38278021334167    1.99706417376125
C         0.09730986962463    0.89350709790535    3.93493476233521
C        -4.00790576993709    3.46887755428264    1.55204430587962
H         2.79992716598307    3.55161897267683   -0.12969172655252
H         3.10305565127018    1.91403923877679    1.60761530558603
H         2.17094479644104   -0.24333450236859    1.64117597433271
H         2.95406521568896   -0.24016138927358    0.06998517739714
H         0.90118118935322   -0.19141854509697   -1.09766932752040
H         0.43974168458051   -1.07236047924571    0.34665401461842
H        -1.06513333773971    0.58544271885656    0.92312191890931
H        -1.49689259579275    2.50062664783049   -0.45595146611766
H        -0.00726961760009    3.43158609945843   -2.02940737658402
H        -0.09099351191527    1.76168054049986   -2.56869295229022
H         2.12086521779819    1.29338413555588   -1.86875117539037
H         2.24854627369294    2.98695629793076   -2.30494794236394
H         3.73829218757732    4.00601345017022    1.60488625674435
H         3.60263702808410    6.64041829046423    3.11569684889140
H         4.92272316908824    6.08209419150041    2.09001327631419
H         3.46415588518907    5.95542648789726    0.15278241449875
H         3.12642632926287    7.52038598133561    0.88146410979227
H         1.07718359665365    6.83102714552494    1.78117181689525
H         3.59022589153187    2.96313847168738    3.98050625811137
H         4.25638608085247    4.50184518517787    4.53579062867198
H         5.13706202322545    3.54085972488146    3.36842314245636
H        -0.03442069943444    5.17482181752886    0.06885572297677
H         1.49871431364227    5.30514804458873   -0.80471919927858
H         0.54157367421812    6.74528616111814   -0.50863605295763
H         2.72791777341816    6.03262675692801    4.87091247913536
H         2.15886131094057    4.47576486952955    5.49774220139103
H         1.35362059302120    5.96947404392526    5.95040594413018
H         0.58833618633929    6.33932089012798    3.66718930207022
H        -0.06024104599537    3.64766632644897    4.91022593246389
H        -0.70783188829078    5.21145380291829    5.37320814301908
H        -2.45517240184826    4.25342489600520    4.19738904969113
H        -2.76997792470784    5.67202428251072    2.24073192036788
H        -1.03436644829685    5.79910495949490    1.98286227680538
H        -1.79194618438940    6.57824589522546    3.38008403860103
H        -1.42910560993041    2.10494616073548    4.84480600568431
H        -2.69324594863418    0.11678184249787    4.53830247891414
H        -2.17902311517521   -0.07224837202650    2.86369368135479
H        -3.91854163197388    2.18320325595070    3.96571399055232
H        -4.43246664001946    0.94083891495386    2.82378059984838
H        -2.87663224132273    1.71450715175381    1.14282310342572
H         0.91096741762694    1.61729347818245    4.02437182723200
H         0.25108431695979    0.30690722316201    3.03080591049007
H         0.14325792759961    0.21876296240525    4.78795447024078
H        -3.57902428620204    4.08215914094737    0.76197177784082
H        -4.29951754217321    4.10361824593756    2.38464313377492
H        -4.91151229474449    3.00368288252614    1.16149706332759

