84
CSD_code = QEPYIW | q = 0 | S = 0 | Stoichiometry = C32H43BCuN2PS4 | MND = 4
C         4.09817016073253    1.39572797820038    2.79591496013662
C         1.97817442656549    0.32511458197530    2.10293741774270
C         1.84824106230250    1.34801185872230    3.05671144655406
C         5.29919592422855    3.38734014758914    5.90376490040862
C         4.93377928026076    1.44163481781434    7.38789133378236
C         3.97803688066629    1.61094745561503    6.37383887772326
C         2.91873392427467    0.71116967117751    6.29551612391577
H         2.15454512230382    0.82791990648256    5.54671339679563
C         2.85057909956522   -0.32830674936510    7.20248512186447
H         2.02931042726221   -1.02635150835289    7.13943552724777
C         3.81341000914152   -0.49031392970017    8.19186138015222
H         3.73802639612113   -1.31262163342366    8.88638722148554
C         4.86431567125189    0.40117030358793    8.29644539769959
H         5.61619789475116    0.29942046881406    9.06251994135195
C         0.57128178290900    1.67799786965670    3.50406967959350
H         0.43876290954044    2.46426376065294    4.22772384592516
C        -0.51897843747976    0.99048737467919    3.00802331052222
H        -1.50606764388816    1.24837253061235    3.36025943047620
C        -0.36985378196604   -0.02254815177869    2.06837781499608
H        -1.23719208813129   -0.54533406827279    1.69660192329304
C         0.88697530538979   -0.36309156146480    1.60526230477377
H         1.02631920130021   -1.14311254096959    0.87408952685645
C         7.44830970407051    5.01703313568486    0.40231574425802
H         7.57939517481090    5.56368499013492   -0.53785468931617
C         8.26879283406814    5.67541843992409    1.51652490203006
H         7.97913586001671    6.72212998038657    1.63367677858820
H         8.04248514578177    5.16571660790034    2.46034183594625
C         9.76493235880496    5.58577912707559    1.23721117435746
H        10.31744925234668    6.05006994811561    2.05620290150650
H         9.99962172417417    6.13351390816366    0.32035235416945
C        10.18397023622538    4.12881303083724    1.08055443382601
H         9.98999940026068    3.59457906530858    2.01264037168774
H        11.25360157861013    4.06601797591845    0.87083048384279
C         9.39127986679622    3.47966846361713   -0.04776662091011
H         9.68170442733159    2.43291701857769   -0.15500069771236
H         9.61806494765789    3.98860424715091   -0.98880131505478
C         7.89123665411509    3.56361773083083    0.22326484795520
H         7.65173508106159    3.00330452943080    1.13238262362042
H         7.35601681850574    3.10194735576309   -0.60881724608546
C         5.07047936284446    6.81039429103780    0.66992946418555
H         4.03947420720213    6.69521164272538    0.30808949354493
C         5.84549782691284    7.65276351544611   -0.34126013677342
H         5.88678309985547    7.15220691352291   -1.31054659500060
H         6.86825288642557    7.80678549544858    0.00638660518353
C         5.17078880171720    9.01541498491116   -0.49567972564927
H         5.72422593799944    9.61813235439202   -1.21903044900202
H         4.15706805858812    8.87947563511669   -0.88080045942001
C         5.10971493951545    9.73824980627442    0.84668133214113
H         4.61987946310952   10.70626757666694    0.72506910265580
H         6.12517994876746    9.92022416955473    1.20573577334061
C         4.35439261782054    8.89703037161289    1.87169421657835
H         3.31926532182766    8.77046395941905    1.54484241196898
H         4.34026193346038    9.40680060905909    2.83643174970550
C         5.00926889203145    7.52771625261178    2.02220582791412
H         6.01804384743844    7.64783471945566    2.42367955872367
H         4.44861957671653    6.91523405012169    2.73531097140268
C         4.73772154843957    4.03386242754708   -0.26416850580574
H         5.18870743360584    3.03639111505408   -0.16515079729245
C         3.27964812157623    3.91728840282986    0.18647661236211
H         3.24061304460962    3.62944988356475    1.24101023365428
H         2.77611417915073    4.88274045953569    0.09249218321070
C         2.55058597888527    2.88979237456332   -0.67419140503325
H         3.01927927514435    1.91119447079350   -0.54736098862895
H         1.50984746017547    2.80536098237255   -0.35281229677003
C         2.61785250570706    3.29464925062613   -2.14428688774437
H         2.09599039702077    4.24472411512726   -2.28238843568095
H         2.11511755572038    2.54566210093661   -2.75902670996264
C         4.06914707972767    3.44363168703833   -2.59360422149915
H         4.10412443097693    3.75483600182513   -3.63991314354937
H         4.57221355202426    2.47705223225730   -2.51479768518925
C         4.80232956964594    4.46669092967648   -1.72638448956756
H         5.84012121610895    4.55240045678079   -2.05576566317080
H         4.32417344288331    5.44139441168033   -1.84446950681090
B         3.20366349383353    3.09915291052383    4.43913987111833
H         3.64459843499223    4.02987985007335    3.80415863314951
H         2.16833559845533    3.35536604234038    4.95229060138000
Cu        5.47507635820398    4.23285604912043    3.02338353825142
N         3.04736061680620    1.91113816902081    3.43755868749272
N         4.20966500296290    2.69836061425619    5.56068465574948
P         5.67649039074729    5.06841501076744    0.96416011161218
S         5.69410712485003    1.83799061303375    2.92759430828478
S         3.65499406402948    0.10197233518210    1.68709955701874
S         5.93866972032675    4.76965228321732    5.21316410257765
S         6.12336108988193    2.70977433608682    7.29627973433409

