91
CSD_code = QEQDUL | q = 0 | S = 0 | Stoichiometry = C44H42MoO2P2 | MND = 10
Mo        3.01527387578779    0.38040297684434    2.30809578245208
P         4.65448538591914    1.48542417845991    3.66553166765615
P         1.70742944746126    1.91189827670707    3.56848836857924
O         6.26454865197273   -1.28964291030340    1.57937296751431
O         5.24654020489567   -1.40725017443258   -0.41668708443737
C         2.07367224579535    1.27235329165563    0.52318538190698
C         2.89013285900777    2.29863473686732    1.05849635928035
C         4.12677906944751    2.66153003430561    0.27326326622738
C         4.94514952337814    1.41747127589223    0.09575466395879
C         4.69712655345063    0.40523727065329    0.93671644917300
C         5.48997204294258   -0.80984084530019    0.77589614238389
C         6.01096946710762   -2.56273176166316   -0.70030472766472
C         5.97477337019936    1.40428839934900   -0.95617196394598
C         5.67929269454569    1.84442968897316   -2.24616143454154
C         6.63163961463806    1.80648765720506   -3.24669586042337
C         7.90617619581025    1.33528101505393   -2.98156352111515
C         8.21503270997700    0.89694200986061   -1.70513287404056
C         7.26135449390523    0.92990027427610   -0.70551116088959
C         3.94416007569547    2.81829933231869    4.76467106123327
C         2.67924242613341    3.37117573603368    4.13896887987688
C         6.13260042496691    2.33216599774287    3.00677202275949
C         6.14593153757376    3.69687700205642    2.73484903344054
C         7.28507008543475    4.29857905302836    2.23040776425625
C         8.42290078741944    3.54637732047673    1.99472552768311
C         8.41479150275181    2.18739968023006    2.25932540176079
C         7.27558678795040    1.58042632017838    2.75613092641152
C         5.51025489501267    0.49595117959277    4.94394786934043
C         5.77670862015789   -0.84237305253094    4.68242002927673
C         6.42640522207773   -1.63089496398728    5.61541251474259
C         6.82422347333700   -1.08845318034877    6.82499242600966
C         6.59744961993787    0.25402941064020    7.07921286221306
C         5.95383988972331    1.04549258166558    6.14508315442917
C         0.19542934519009    2.65909322235928    2.87537301435228
C        -0.83875468005630    1.77448799459784    2.57283661757122
C        -2.00652698789397    2.22299302342692    1.98809415397230
C        -2.15334689814405    3.56779868809748    1.68563577374244
C        -1.13084074405124    4.45391019216630    1.97692762845674
C         0.03906248415449    4.00598479016294    2.56704807857087
C         1.09293993537303    1.41919788012044    5.22135148722077
C         1.90658432464711    0.60060242339221    5.99876593287056
C         1.53896865001701    0.25825245408828    7.28654296066269
C         0.34646275207517    0.72804101020994    7.81236346821033
C        -0.46685029502716    1.54763426961913    7.04775276041751
C        -0.09551920822058    1.89984177727648    5.76182074990074
C         2.55789902683954   -1.62089360612537    1.30438304630633
C         1.33110939027512   -1.14124171124100    1.81232505717869
C         1.41975475822025   -1.11973445693312    3.21557780351302
C         2.70048283332895   -1.57981474901184    3.58856341559035
C         3.39930138296157   -1.90958206971874    2.41017070931770
H         0.99850695699020    1.41848321699726    0.56598561500199
H         2.40481899994385    0.81812693491883   -0.40459724969232
H         2.34826365544837    3.18168753323716    1.40719971506609
H         4.72532346708197    3.41819371727603    0.79283784510135
H         3.83803415384406    3.09329386858789   -0.69131426029889
H         5.63254813824451   -2.95993332994937   -1.63937737149551
H         7.06728858159051   -2.30057357282434   -0.79907554929898
H         5.90556333605993   -3.30206062571454    0.09826419837744
H         4.68364695815498    2.19387394397666   -2.47894990467750
H         6.37706993515937    2.14316322652694   -4.24217119017719
H         8.65118535390493    1.30765859081532   -3.76371006097761
H         9.20750070615721    0.52742753291083   -1.48661851627590
H         7.51498692728147    0.59587660484157    0.28789636193703
H         4.67753743116864    3.60688878081786    4.95572956650275
H         3.68708428703035    2.34649975324038    5.71765732996031
H         2.08963127482560    3.95098864106700    4.86042121504485
H         2.92350449909620    3.99760645538282    3.27728317776212
H         5.26476046115350    4.29884391614608    2.91428067606954
H         7.28432389082650    5.35901352776763    2.02037951434291
H         9.31199068877897    4.01865679540699    1.60368223949080
H         9.30090089768756    1.59740153381846    2.07493329258323
H         7.26174930072388    0.51591960472218    2.94059192052735
H         5.50302208723091   -1.24856198537632    3.72293701738707
H         6.62611493608669   -2.66933635025766    5.39438306199335
H         7.32338811265685   -1.70232739069775    7.56060154266069
H         6.92985601751567    0.69096595879395    8.01023451227917
H         5.81432090546839    2.09455890498151    6.35809456475355
H        -0.71760887518964    0.72641854421816    2.81307037798485
H        -2.80199452476072    1.52707958434410    1.76360330656041
H        -3.06253103536032    3.92275074205313    1.22357563213969
H        -1.24318492722372    5.50268022948418    1.74263766398965
H         0.82218781495077    4.71559474661083    2.79113353143532
H         2.83348926019300    0.22762797889304    5.57982907415080
H         2.18300541149508   -0.37563147145888    7.87899643763322
H         0.05218406737102    0.45738854703702    8.81557334129770
H        -1.39567118398215    1.91940422122463    7.45566804332402
H        -0.73496666990372    2.54659971640066    5.17761064882056
H         2.74322973513817   -1.90649934766634    0.27792381433421
H         0.43387348249518   -0.97487751575230    1.23365765276999
H         0.60602237925662   -0.92352084698562    3.90231165640115
H         3.01338196720427   -1.82954763220831    4.59347476547040
H         4.30989131409659   -2.48794222759715    2.36943023637967

