55
CSD_code = QEQFOI | q = 0 | S = 0 | Stoichiometry = C22H18FeN4O8S2 | MND = 6
C         2.77171656243276    7.15642687634852    0.70421355264207
C         2.49092441835759    8.51006304233280    0.55839637268948
H         2.16139925347530    9.07070401393737    1.41827007793124
C         2.61379868656215    9.09236579500380   -0.69093124190269
H         2.40550020891033   10.14200494632427   -0.82943355282032
C         2.98295387659520    8.28645344349769   -1.75892052045117
H         3.05387886328433    8.68084370328690   -2.75929470148631
C         3.26962821117761    6.95420403982645   -1.52488540098788
H         3.55207500864827    6.28906352136821   -2.32624197508676
C         1.68129591756137    3.16367767498632    0.86915270714270
H         2.11766645636833    2.47787543211820    0.16439431679653
C         0.50632023711300    2.85514015113252    1.52837726932838
H         0.03192487973987    1.90165874568247    1.36103010610827
C        -0.03769408309077    3.78340209839626    2.40317651085791
H        -0.94621539553312    3.57314454568148    2.94592321975610
C         0.61336000590876    4.99399208797779    2.55829882371792
H         0.24841101527501    5.76735636137475    3.21391783519761
C         1.78251234716130    5.22009561885895    1.84722773253451
C         2.55518870065279    6.47785706726205    2.01357878791808
N         2.32519632493878    4.31733191447794    1.03020895857522
N         3.20009977131395    6.40391275783412   -0.31346459476964
S         4.18066987734942    5.83923520546682    2.68739127686076
Fe        3.90148651772370    4.69005921953160    0.00026210413270
O         4.70164441600980    6.99936986414718    3.37500389172966
O         4.97942231144416    5.46164413460340    1.51253976731315
O         3.83923504149575    4.71717816113119    3.52545552703301
O         2.07178511766751    7.31697770034500    3.01236495749085
H         2.84763062178154    7.58705163984143    3.53829401753544
C         5.03106017497107    2.22342487257190   -0.70283517299606
C         5.31301974720743    0.87014251351811   -0.55593073716631
H         5.64238479951367    0.30892473772799   -1.41548923281190
C         5.19157860503981    0.28891153531483    0.69404737185339
H         5.40098461599169   -0.76038858473427    0.83344084641106
C         4.82238239637777    1.09547794586598    1.76151825038382
H         4.75246973787124    0.70205750200980    2.76234495808974
C         4.53436100382322    2.42724034677580    1.52640802074202
H         4.25178378324456    3.09277867913905    2.32737615989733
C         6.12172293652535    6.21593306142746   -0.87094410427725
H         5.68639871468327    6.90179600180994   -0.16558836189281
C         7.29539145629045    6.52454034015831   -1.53247789510020
H         7.76967211746767    7.47835217574004   -1.36669102784105
C         7.83820399730776    5.59597789703277   -2.40771088130155
H         8.74554607355059    5.80631921005285   -2.95238997984501
C         7.18743947481444    4.38498522086774   -2.56081649187346
H         7.55155781873599    3.61127912013096   -3.21649590850993
C         6.01946734373710    4.15899923202661   -1.84778542203110
C         5.24664589851405    2.90114030851469   -2.01280614331963
N         5.47774871590889    5.06212563877918   -1.03049644759594
N         4.60283459095135    2.97652331394120    0.31446951102463
S         3.62140686217533    3.54045234284063   -2.68668374726953
O         3.09959397753097    2.38033279193974   -3.37369059380127
O         2.82309508573412    3.91907744839484   -1.51188022090358
O         3.96334974068612    4.66206522305149   -3.52512439523644
O         5.72929266772150    2.06128394926320   -3.01134652410634
H         4.95309249329983    1.79115741306354   -3.53672765631012

