63
CSD_code = QEQHID | q = 0 | S = 0 | Stoichiometry = C24H32N6Ru | MND = 9
Ru        3.17716868694255    4.09485992806709    0.17980836948098
N         6.13741982162091    1.99963581637753   -0.39141377217245
N         4.51818074669082    4.52790645833993   -3.62852465770615
N         4.55787076868838    7.63507543111322   -1.24804900624809
N         6.79420639509738    5.34975024798017    1.46947654627772
N         2.03279987421331    5.05886584049977   -1.29041836045140
N         2.32255408855853    2.93523997168867   -1.29821708260816
C         2.04241380204853    4.71580801765718    2.01928948766430
C         3.41340757806936    4.68804501913355    2.39816407254933
C         3.89858142558715    3.33726651054696    2.23821325209057
C         2.82237123083934    2.54360912653445    1.76318857024390
C         1.66945418843026    3.40105517581165    1.58777435038327
C         1.12265905891333    5.86925360575847    2.27482487562215
C         4.06927692114073    5.78991044163789    3.17178953022242
C         5.18592146706925    2.78161405654186    2.76049031230443
C         2.85157849587869    1.04889896868099    1.72868922943938
C         0.25061354715076    2.95604273304287    1.37894195407968
C         4.85375841444996    4.09431111126509   -1.12288778018191
C         4.89416171339458    5.29219492356866   -0.25650434719217
C         5.58583150412969    2.95245269842720   -0.72749902580167
C         4.66017296849930    4.31500921774581   -2.50835983710351
C         4.69687012779216    6.57273726252496   -0.83560678020720
C         5.92765915621721    5.31275161102029    0.71665340499645
C         1.76817855090720    3.94878360347865   -1.94785110936123
C         1.00996408747343    3.85030104167646   -3.23758777926199
C         1.54062605899627    6.39256554296886   -1.55692157056059
C         0.03936443470389    6.52906281491599   -1.26746397876598
C         1.88315766207889    6.90500686036350   -2.96164195333598
C         2.48079937867391    1.56143486775711   -1.72146382344529
C         1.14721315515581    0.79342700213083   -1.75860508429474
C         3.23736593132336    1.38900145543274   -3.04392177844803
H         0.11417391103771    5.64781478560395    1.93580943428080
H         1.46731484540343    6.77561011599379    1.77832397093914
H         1.08920413265073    6.07039327609450    3.34738625572036
H         3.85605294073572    6.76430251760717    2.73407114032802
H         5.14659964510805    5.66479134172636    3.23104649657202
H         3.66905675556824    5.78347595090648    4.18820049586313
H         5.62614933577060    2.07775711265927    2.05433512050370
H         4.99369126702712    2.24902613143926    3.69394184928732
H         5.91324614651494    3.56590954434789    2.95184969540311
H         2.02299605948353    0.63769604625778    1.15833066911950
H         2.78555519657159    0.67113200770258    2.75151467974764
H         3.78750649826011    0.68843978177562    1.30413784946684
H         0.20383483664557    1.88727986375804    1.18605957385200
H        -0.21173148766009    3.47916896459331    0.54120624825481
H        -0.33484519020736    3.16375510417134    2.27638257368549
H         0.64247575862392    2.84326975221367   -3.39632539344606
H         1.68052056251765    4.11914567212536   -4.05319991547116
H         0.16677709511222    4.53301900038548   -3.24486061954482
H         2.06789953291469    7.03478165848287   -0.83922946262933
H        -0.19859864939242    6.10933615573581   -0.29393268934389
H        -0.56368892029475    6.02291568225646   -2.01651012739704
H        -0.23143136900122    7.58149784526285   -1.26889482212497
H         2.87989940727109    6.58079280413647   -3.24852581928093
H         1.86820508571549    7.99104750685175   -2.95867097223168
H         1.17191119764538    6.55285454487489   -3.70257162716872
H         3.10317306432474    1.10129455133440   -0.94315659753330
H         0.47670478453440    1.15226958083257   -0.98210712135498
H         1.33237011212349   -0.26601583947033   -1.59956356402313
H         0.65067213259884    0.90217516110196   -2.71911388907568
H         4.24551557684986    1.78748193522680   -2.96516194141443
H         2.73620410732595    1.88946139459556   -3.86616390052101
H         3.30978438748729    0.32814268673565   -3.27117381866969

