73
CSD_code = QEQJAX | q = 0 | S = 0 | Stoichiometry = C27H35N4O5PW | MND = 6
W         2.88042827096302    3.30712214496557    1.13025059224363
P         2.85328127479729    2.87500974892063    3.54580743457963
N         1.38717486632326    3.40846051052927    4.17566040354187
N         3.81856566327096    3.93903231011192    4.41724142047418
N         0.59644333488119    5.34393396958230    5.20253033177764
N         3.55697239099921    5.76167361666419    5.82925275760955
C         2.90337171861978    3.72975381209018   -0.80498262739851
O         2.91261705504398    3.99084437994690   -1.92038994693599
C         3.86623126834750    4.97163233395291    1.60103743880033
O         4.33642009661533    5.95570728939383    1.95043421934405
C         4.64654248033888    2.38590275250477    0.92458598835841
O         5.71613763580980    2.01758683262110    0.77305174081879
C         1.73437803101142    1.70743964165816    0.76150464176062
O         0.96559991529086    0.89858612907069    0.52280780083474
C         1.22535039851279    4.37467944802964    1.41315088895900
O         0.34563425423622    5.07433589188556    1.63654969540970
C         3.05271852903693    4.77587062983887    5.05613515203937
C         1.60269401096688    4.51729299020219    4.82166503452897
C         3.21624127863318    1.22179431010244    4.33807367566435
C         4.55172832196710    0.84969053754507    3.76227924184925
C         4.36498915745948   -0.09723641346442    2.81723021787910
C         2.94838386734289   -0.43419734030177    2.73846408425297
C         2.25859762117273    0.30313437798992    3.63617553155825
C         3.11281685095406    1.29607934791551    5.85061872281339
C         5.82021387143078    1.46439159028152    4.24220614294096
C         5.39119420622809   -0.79399929763187    1.98930185920901
C         2.43857397488266   -1.49493839914881    1.82271550519809
C         0.80735211222863    0.27183895101845    3.96718788255737
C         2.95881406944560    6.08437867353372    7.11275157829485
C         3.23191549827733    7.54125498820917    7.47739936246247
C         4.73570476890961    7.80052218011731    7.47976428047771
C         5.31874277119224    7.41056926329599    6.12500321090777
C         4.99672969599537    5.95373274909189    5.80882240961623
C        -0.75535451484619    4.84381134829841    5.00152347526164
C        -1.71610407093933    5.60146421399823    5.91147691577009
C        -1.64866265156928    7.09830050494583    5.62518836104810
C        -0.20935497283576    7.57902080042525    5.78473577896345
C         0.70708349894609    6.76124748549914    4.88117578172511
H         3.28755067990101    0.30879809006194    6.27587943890675
H         2.12157237988592    1.63754792457847    6.14604275437153
H         3.85420938782135    1.98764335548021    6.24644908469192
H         6.61940854699763    1.32329863951067    3.51891967979988
H         6.12989223308625    1.01278407282109    5.18691368012685
H         5.67516175018716    2.53102806577935    4.40245976416367
H         6.37286806315765   -0.34826732188051    2.12053839601966
H         5.12632756297666   -0.74878780284147    0.93374585188066
H         5.44789741244607   -1.84504597684797    2.27411243824693
H         2.83575949235138   -2.46598752806802    2.11981732443833
H         2.76012243134843   -1.30235844762445    0.79994949991863
H         1.35385528397650   -1.54558154855681    1.84158995407329
H         0.24295141776381   -0.24772799027004    3.19721843521393
H         0.42714189812479    1.28849133600283    4.05392110438491
H         0.64263321282920   -0.23929300332112    4.91780685556079
H         3.40679267849995    5.43660734900644    7.88276994390283
H         1.89027943972267    5.87583121445801    7.07775259136600
H         2.80617254247720    7.74990407016797    8.46013438672111
H         2.75141798872834    8.20014084197121    6.75215236690610
H         4.93563002461314    8.85244276717467    7.68844684821658
H         5.20773935504510    7.20565964101726    8.26528982571896
H         6.40054125458767    7.54679736670415    6.12076508791015
H         4.89311681797192    8.04645015961409    5.34650855461121
H         5.35493916570684    5.68243833510907    4.81525746014389
H         5.47839782919547    5.29141209472741    6.54156082947359
H        -0.75625429859706    3.77826412563634    5.23478577671293
H        -1.05049458264845    4.96132966196942    3.95075200262835
H        -1.44462753475233    5.41696016065026    6.95326595835593
H        -2.72815643601723    5.22790158578068    5.75260915917603
H        -1.98400672222627    7.28833745358575    4.60345143005931
H        -2.30667355108993    7.64326110047248    6.30378182590766
H        -0.12714699573360    8.63361726542657    5.51773157989748
H         0.10033353333559    7.46586742458519    6.82570281921279
H         0.40404791643859    6.90947742557299    3.83373183594352
H         1.74613327199128    7.07433378794553    4.97489846993345

