71
CSD_code = QEQJIF | q = 0 | S = 0 | Stoichiometry = C27H31N2O9PW | MND = 6
W         7.37431146404684    2.66014137789371    1.51309950807452
P         9.18602816792238    1.65932303603210    2.81153778537426
N         9.38539114224871    0.04629493853084    2.66402889709969
N        10.42893370915669   -1.92847101107614    2.98897025654615
O         5.11157674785011    3.73940577348697   -0.35141560942852
O         9.24240534270408    1.93579940077141   -0.90809612868303
O         6.23370436751111   -0.26467763853667    1.40690714754030
O         5.66307897195460    3.30936144527897    4.06414058182232
O         8.44721427785773    5.60444294677304    1.61682374439977
O         9.98954555868489    3.48042251392835    6.23376517789231
O         8.91301803058290    3.99043622175077    4.32815710339784
O        10.94800345748923    3.94049054043169    1.11458698658811
O        11.39401747396437    4.62583031665400    3.20571216144462
C         5.94140610886872    3.34701553185290    0.33245785739974
C         8.55239215142917    2.23178897985520   -0.05158386688305
C         6.63605500777153    0.80216917658101    1.45141329658466
C         6.27111293871308    3.06547740219889    3.12775979969441
C         8.11030976459844    4.51389596780501    1.57734918841991
C        10.42285084161216   -0.57625548504824    3.14384443615121
C        11.59668955539016    0.17020555552368    3.71126187614627
C        11.23065906204556    1.10138419992529    4.91580885754801
C        12.53538423484192    1.88725124153845    5.03540521432293
C        13.02319406131835    2.04917554386223    3.80147847995345
C        12.05226368978357    1.38657615085706    2.82539509577825
C        12.80880215788815   -0.73438458177560    3.96655990673519
C        10.68025192562611    0.43405893171751    6.15731852185608
C        13.02541415083789    2.39791705963236    6.33964811020696
C        14.22396069165639    2.78767188912563    3.32806010865011
C        12.52135507394255    1.06693694252567    1.42389581128725
C        10.86891506368241    2.36008353790269    2.88191349521464
C        10.28600760386601    2.13308597458571    4.27823742185546
C         9.75815489270972    3.25088988986012    5.07181787157256
C         8.33362869603772    5.10780601985191    4.98925186963726
C        11.06388932032469    3.71103283181028    2.29333536902685
C        11.57190953680330    5.95575249325112    2.73214014265207
C         9.49169963427004   -2.49022857256061    2.02728396813594
C        10.09191947400647   -3.76257601311731    1.43420873066432
C        10.39436829566397   -4.77920553222161    2.53016316568109
C        11.29983447820626   -4.13753881632970    3.57664549366764
C        10.65424568519170   -2.85283300197507    4.08717525287268
H        12.80230442514514   -1.14695392498154    4.97162386033146
H        13.73249885393920   -0.17252452624530    3.86501480596871
H        12.82568444037523   -1.54640172538092    3.24572790194954
H        11.40350804639673   -0.25821088279852    6.58329072375007
H         9.76952880535406   -0.11108235266040    5.91228084446361
H        10.44129529106999    1.18836460033602    6.90196749860424
H        13.91956014884324    3.00142131965460    6.21157456225286
H        13.25334398883977    1.57161124525718    7.01243477258102
H        12.24882672481582    3.00407606584489    6.80333844384455
H        14.70574456976953    3.30995567095690    4.14978107547674
H        13.94424606335843    3.51590565265759    2.56782006753443
H        14.94477008727716    2.10357264754942    2.87828624262456
H        12.76756301068635    1.97979926989853    0.88685639597013
H        11.72313727796534    0.56548983541842    0.87820821581750
H        13.39566006883756    0.42050382967732    1.44331482777300
H         7.63832439242051    4.76894308831533    5.76016512429781
H         7.80551934941442    5.67973647838393    4.23081151079584
H         9.11459266991245    5.71164132895053    5.45563480095807
H        12.28495289368740    5.97099308141379    1.90535571733566
H        11.94816753232563    6.52858104344062    3.57580001840485
H        10.62110856006414    6.36142461692319    2.38328468329573
H         9.31491042388480   -1.75162937773934    1.24564948708173
H         8.52968549695941   -2.70912482691676    2.50713170504492
H         9.39333134464848   -4.18065192375039    0.70900983766756
H        11.01486448675108   -3.50814280919287    0.90937421909423
H        10.87238341711758   -5.66281088563574    2.10496319089681
H         9.46137632257027   -5.09528049548544    3.00194427267341
H        11.46113760774185   -4.81820019774341    4.41367287482196
H        12.27027239657892   -3.90862819150586    3.13257998970395
H         9.67809270234436   -3.10148801291145    4.53082513439797
H        11.25640579184217   -2.38954282094124    4.86181410775081

