75
CSD_code = QEQQIP | q = 0 | S = 0 | Stoichiometry = C35H27IrN2O6S4 | MND = 6
Ir        9.49258848138923   10.16479396286583    3.59845545873318
C         7.96863826475555    9.67004120077081    4.81483972895297
N        10.53762237738528    9.33720329451010    5.10484007817451
O         9.68527324638800   12.09667044577015    4.58981602886996
N         8.32942358046696   10.87117250053468    2.11777333366101
O        11.25097301119013   10.76355361307531    2.45557369839347
C         9.27588936675412    8.47315774984092    2.52742312149425
S        10.47764987749285    4.63929953339527    2.08683291229736
O        11.03237105642140    4.63933036401053    3.41660503843633
C         9.82030522203507    7.21287326651102    2.74102431993496
H        10.39093436986881    6.97722671927250    3.62680624256592
C         9.64161182326719    6.20496085020719    1.81483637175516
C        11.83487749378835    4.72959172176344    0.90677808895841
C         8.91672836592550    6.38598779581374    0.64876007988379
H         8.79819830412414    5.55992898061984   -0.03412454454620
C         8.54551775677788    8.65000110929954    1.32750677352652
O         9.62021752327243    3.54664810466744    1.70968967292125
C         9.80457661302455    8.97918308946177    6.14632939768324
C         8.38298934290684    9.16966063925491    6.07240565242323
C         6.61332529580556    9.91705674741306    4.66091782923653
H         6.20901457393087   10.29040670752413    3.73244728067035
C         5.73671702108968    9.70676151760455    5.70821768932128
C         6.14968823044898    9.21426858148893    6.93254813680549
H         5.42055926387694    9.07557838816080    7.71487293070068
S         4.05966518141357   10.29322422642058    5.44847702627061
C        10.54855595619781   12.97740884523689    4.35012841212466
C        11.86991000778491   11.85282154128797    2.55473601403062
C        11.58568564710442   12.91755082663394    3.41463875822394
H        12.23458991731309   13.77837397009191    3.35278210491181
C        13.06750234949433   12.03368709143560    1.63918672479421
H        13.96991285099114   12.17816215377629    2.22987255741586
H        12.92798543569249   12.91096786235938    1.01128580555270
H        13.18360234752582   11.15466867026707    1.01013363903760
O         3.51464546334021    9.71020775715124    4.25072473079538
C         7.48860857241631    8.92328147807195    7.11331315229480
H         7.84923521970652    8.53467819361163    8.05495563410811
C        11.85557306385622    9.08563949353933    5.28734577768914
H        12.55499358496188    9.32756363717001    4.50711106420622
C         7.02279982166600   12.14105818928229    0.75185801949533
H         6.48347313299502   12.97239606944600    0.34755821149221
C        12.15956615250952    8.52957085859639    6.48538895985282
H        13.11673746063519    8.23761346945025    6.86514999097997
C         8.03725761108559    9.98426810602512    1.18107366251591
C         8.35488340847252    7.62222877233952    0.40303595207916
H         7.78165243097616    7.80351943931564   -0.49488282807960
C         4.41068067918811   12.03008177120343    5.12632522222325
C         7.76162864651191   12.07858429945786    1.88636577077176
H         7.91254410123531   12.88026647247177    2.58710610671464
O         3.30910677233407   10.16997465460075    6.67017641334041
C        11.95583111946932    3.77217828559074   -0.07990554777703
H        11.23071702948999    2.97433289368634   -0.11836839212602
S        10.73568227619048    8.30501730174504    7.42782750703451
S         7.03073579471645   10.62251455264272   -0.06293433519648
C        12.72973940196224    5.77741287657692    1.00979673920147
H        12.60191951121473    6.50707786453459    1.79435928899379
C        13.00328963879606    3.85963971746002   -0.98288043497187
H        13.11323293229626    3.11517844796613   -1.75689481529934
C        13.77454089639511    5.86248675036565    0.10511593693963
H        14.48405248485447    6.67341154904218    0.17326349473600
C        13.90927420454772    4.90378314701178   -0.88786774975473
H        14.72662704763437    4.97103471544746   -1.59058572908591
C         4.42871750663063   12.49695798568313    3.82661987881431
H         4.13189003681966   11.83106705697222    3.03080886488052
C        10.45694509347223   14.25257530732195    5.16890090859085
H         9.58665885193026   14.20773875752515    5.81899512537816
H        10.37815662852035   15.11686691496863    4.51297030647525
H        11.35281212655165   14.36663267817094    5.77584684792778
C         4.76459568039346   12.83993705400741    6.18752044807554
H         4.72991630871677   12.43664076792827    7.18757652305451
C         5.14007683907728   14.15017080761481    5.94276691468812
H         5.41355302278924   14.79718340430381    6.76278600532456
C         5.16709246474402   14.62826619130091    4.64144629949478
H         5.46454423808769   15.64933148065957    4.45156508408950
C         4.80902512918815   13.80674975387585    3.58421866433830
H         4.82468745774489   14.18725900435486    2.57352996250388

