46
CSD_code = QEQREJ | q = 1 | S = 0 | Stoichiometry = C12H27N4NiO2(1+) | MND = 4
Ni        0.05235237152683    2.08748569784987    1.80774413311786
H        -0.33675785505900   -0.76508969630386    1.88359764336105
O         1.16756082778332   -0.33754673162962    1.53411295948139
N         1.40748432505128    0.86488309054002    1.85591529175630
C         2.56405608883446    1.32164521639296    2.19883902861692
C         3.76688032892237    0.44519522297033    2.27062121387823
H         4.19828907741942    0.47235423143589    3.26937506139043
H         4.52842635291810    0.77381763760204    1.56576385563267
H         3.48276242853942   -0.57678371762319    2.03146519190745
C         2.57859712780341    2.77901015254325    2.60475106774281
C         2.00218544253143    2.86770150984065    4.02767786780238
H         1.99267278700250    3.89635736918875    4.38183125697907
H         0.97622161283367    2.46819867060739    4.03204129414799
H         2.59693797573245    2.27497946760565    4.71652821121087
C         3.95859675861086    3.42698442682009    2.55239724348402
H         3.87750144058332    4.49729744487494    2.73055170806088
H         4.59163342693274    3.00759600004326    3.32820419902805
H         4.44568997583522    3.26563995803908    1.59553605583916
N         1.58446064855170    3.44024381635599    1.70753865678163
H         1.38867212982504    4.36514440556333    2.09741260996943
C         2.05560332416608    3.64819331901696    0.32866102296738
H         2.88412460709214    4.35826723199888    0.28421515695981
H         2.38049630115303    2.70033375239598   -0.09941665502267
H         1.24103212030297    4.04193865304937   -0.27832094466513
O        -1.31847558705205   -0.55013892949698    2.00415413848942
N        -1.41826674342831    0.77133005862404    1.71655822316791
N        -1.53116069363128    3.37940131120522    1.88981334089977
C        -2.55109214839988    2.71911785201789    1.02865716285463
C        -2.56879857483614    1.25229226025360    1.41960787614254
C        -3.80493695071816    0.43454996688909    1.37421807728373
H        -4.41092203324598    0.69032473415655    0.50997315653178
H        -4.40386181863479    0.60839844270544    2.26765300234787
H        -3.54243990345315   -0.62045307518528    1.34477980138246
C        -2.00736273483622    2.77981674419318   -0.40927519834850
H        -2.01591392378545    3.80176857362044   -0.78203435130760
H        -0.97874513286971    2.39220504708460   -0.42697073689829
H        -2.60989183609271    2.16762209952174   -1.07407385733468
C        -3.91868090669394    3.39413188270299    1.10536587572568
H        -3.81052599883449    4.47012406242028    0.98293450237782
H        -4.55754122821509    3.03624331038757    0.30388373335724
H        -4.41771586903664    3.19656630270892    2.04944374213455
H        -1.36250850735391    4.30545826535480    1.49138627918536
C        -1.96222686460412    3.58285735937963    3.28180001462799
H        -2.82194602461050    4.25250517337968    3.35281372020363
H        -2.22589093773916    2.62625735251948    3.73231790118398
H        -1.14657520681897    4.02377407638241    3.85395046556140

