88
CSD_code = QEQWIT | q = 0 | S = 0 | Stoichiometry = C38H41BIrN7 | MND = 6
Ir        4.04654449047304    2.51756265378294    1.50592985876386
B         5.20600170621281    4.45340242509685   -0.78547465594474
H         5.59066097870869    5.21433648292542   -1.60705419332846
N         4.93714189988726    3.06694939654576   -1.38698317852109
N         4.35018259306317    2.09250569716217   -0.68261709811155
C         5.22397059667309    2.62554900670709   -2.61892992210470
H         5.69406842288690    3.26240994733794   -3.34103795927222
C         4.81684321618556    1.31290790090359   -2.71570244804882
H         4.89134324401338    0.65849375337811   -3.56017984700472
C         4.27137931879849    1.01778443263586   -1.45916648004625
C         3.73838355376560   -0.26827288267435   -0.98298661155205
C         4.63792972344950   -1.22413319842330   -0.50092988394666
C         4.15280624696555   -2.43643318509415   -0.04260769217519
H         4.84655516850561   -3.18318394875302    0.32079078950960
C         2.79277666980667   -2.72117602854885   -0.05072595664003
C         1.92083973616720   -1.77064550963155   -0.55292437889950
H         0.86122954377046   -1.98291288126072   -0.58289026240895
C         2.37551484907624   -0.54765786287854   -1.02982540150079
C         6.11094367537106   -0.93966009977028   -0.50636341046116
H         6.32659191078979   -0.02562362665586    0.04468464042311
H         6.46363920707160   -0.80151232078069   -1.52817435031870
H         6.66636289402558   -1.76146538271228   -0.06006301493230
C         2.28913525811118   -4.03034516271953    0.48021006262402
H         1.28157630982848   -4.23145591019383    0.12544700882751
H         2.26600822253236   -4.01081956093891    1.57061912715379
H         2.93919074648405   -4.84787254022987    0.17422302653892
C         1.39791956043618    0.41745396463667   -1.63051957724941
H         0.49891720597421    0.48077519942121   -1.02146802423473
H         1.10635903397834    0.07410361969826   -2.62390985719316
H         1.83110793817815    1.40838809422101   -1.72846659001310
N         3.87829188428466    4.91956291320714   -0.16182313301599
N         3.32571291451628    4.26610731426297    0.86456008068050
C         3.05736786808020    5.90181072205258   -0.55759054758308
H         3.31422981536173    6.54547059091866   -1.37502350566546
C         1.94160396371487    5.88988976348826    0.24886564027464
H         1.08692112330456    6.52814560646532    0.17138157715396
C         2.14660934517797    4.83061426938526    1.14800926661216
C         1.31173824153879    4.33494991261201    2.24073772382125
C         1.27301206208240    2.94527595528679    2.47633807223883
C         0.52179007492540    2.47050865029944    3.54596797126319
H         0.49421951578585    1.40507747967048    3.72854432441207
C        -0.18736915445138    3.32115465504004    4.37706754611304
C        -0.12750257261330    4.68529676885176    4.13347350382630
H        -0.66426867184891    5.36196309584984    4.78427150070403
C         0.61681669345030    5.20636622088269    3.08482680151617
C         2.01033935657140    2.00253242967303    1.60419718977667
H         1.65345060231715    2.12365087437133    0.57633706219343
H         1.79577884070093    0.97435288850563    1.90754272853166
C        -0.97799914042275    2.78892712860732    5.53518788556790
H        -1.87300625706753    3.38523302487579    5.70046684716564
H        -0.37775701708460    2.82576159800163    6.44520713426207
H        -1.26883159175536    1.75508926083426    5.36389017495002
C         0.67056435241697    6.69769369657618    2.92056098137780
H         0.44101253096979    7.18633824945974    3.86517170738658
H        -0.06450067914437    7.03018018265032    2.18748664079916
H         1.65419969879305    7.02179915767857    2.58874421545527
N         6.21135894065126    4.30813810174422    0.36556704797038
N         5.96447119725408    3.45110299798470    1.35318074416678
C         7.27355537368906    5.06251299369173    0.68828150911954
H         7.64129537736953    5.81988175389459    0.02515900843772
C         7.72357678976647    4.67158279186420    1.93096895835599
H         8.53834429439114    5.09112762689616    2.48353123755252
C         6.84708215268177    3.64781129404562    2.32915815728507
C         6.75010174343304    2.86565965434193    3.56114575896835
C         5.46875422843044    2.62436748209166    4.10094653505361
C         5.37019728539472    1.81707920989474    5.23172043825344
H         4.38952319809433    1.62563361037529    5.64462221738685
C         6.48350976458262    1.25916982617924    5.83579432736764
C         7.73374144424932    1.51654384797828    5.29071082271017
H         8.61174392972489    1.08340277766387    5.75050238063139
C         7.88196948368306    2.30807129484571    4.16143989275521
C         4.23700967658792    3.19067136258065    3.50191437628824
H         4.33085880233029    4.27737590623202    3.41458828789622
H         3.38358065123086    2.97974877536374    4.14565138295367
C         6.35238156621299    0.40524411932460    7.06274317073103
H         7.03559075402113   -0.44165905485294    7.02265445756648
H         5.33494180649720    0.03668613575495    7.17315204179455
H         6.59839318747913    0.98790322104383    7.95080945344870
C         9.25867717540010    2.52079882860753    3.60197290505638
H         9.92344219796413    1.71891922905908    3.91679888692722
H         9.67476544014420    3.46045681459437    3.96559365783217
H         9.24037713955319    2.55758579755562    2.51498888592274
N         4.61196435386123    0.83936805114046    2.08273275318234
C         4.96001819758644   -0.16277461572039    2.53728163883343
C         5.39728168786019   -1.39189989226705    3.13129745384977
H         4.70567842168807   -2.19338628808658    2.87334638040641
H         5.43186641936971   -1.27134263952013    4.21408818886489
H         6.39359959802948   -1.64508589703746    2.77025393261163

