32
CSD_code = QEQWUF | q = 0 | S = 0 | Stoichiometry = C12H14Br2N2PdS | MND = 4
Pd        1.83328594546155   -1.08891242349984    0.79912033603450
Br        3.11054910027769   -3.09648175151900    0.67176040325590
Br        2.22232541550951   -0.48651760737580   -1.48054245921245
S         1.07370713753535    1.19097880976073    1.02868011216311
N         0.42631124178075   -2.66330702957315    2.92689262693742
N         1.53783744716453   -1.04031008174236    3.79430132578264
C         1.22032975588420   -1.62497193219907    2.62598105021344
C         0.24303772833102   -2.73167389525636    4.28187680816313
H        -0.35257194572963   -3.49221407735261    4.74280851878961
C         0.93507626260862   -1.70423728727485    4.83017633695390
H         1.04908613758208   -1.40387916072709    5.85089791534812
C        -0.11899039056511   -3.57461120187375    1.95416804371937
H        -0.03320930128600   -3.11873941911096    0.95539214658259
H        -1.16719002909955   -3.77719437995184    2.17397528408919
H         0.44403878340083   -4.51067445073599    1.95410569197192
C         2.31131595914975    0.17858622133141    3.87885647222243
H         3.01128669160287    0.18467019442028    3.02888815358149
H         2.88936016381919    0.17328451666994    4.80590633562637
C         1.37294926722845    1.36284852521831    3.85484026920928
C         1.04431326440166    1.97933251629619    5.05697350866596
H         1.52820437397893    1.64734362565930    5.96428695935582
C         0.11787190404072    3.00473310308709    5.11300834560730
H        -0.11363499155840    3.46786881813683    6.05966849510274
C        -0.51272090870282    3.42581590590470    3.95504281674431
H        -1.24378974023751    4.21845298358211    3.98713995421207
C        -0.19322939593209    2.82916211186682    2.74957960913928
H        -0.66831472746213    3.15018386809187    1.83515284741570
C         0.74684584806972    1.80956524329713    2.69056841325804
C         2.74781773087333    1.90524676732600    0.79542465972911
H         2.86208506279004    2.74516547989942    1.47324935144296
H         2.79141477308486    2.24031158736853   -0.23767289435173
H         3.52650143599844    1.15257442027638    0.95739256224514

