61
CSD_code = QEQXEQ | q = 0 | S = 0 | Stoichiometry = C24H28Br2N4PdS2 | MND = 4
Pd        5.69956222012767   11.93120212644273   11.81282716267558
Br        3.95026796543886   13.35028221178127   12.70493885504191
Br        7.49299134036280   13.46734717671630   12.35325326679856
S         7.30228416006894    8.25074114516685   15.42873838781373
S         4.14458929467031   12.63776922316654    6.78562103785155
N         7.67429173186178   11.19908212776957    9.73299595799368
N         7.90374149650805    9.87976625751779   11.41445852195629
N         3.68532607590344    9.89088683687236   12.55035948546220
N         3.43399545469745   10.41078626258970   10.47965215278172
C         7.14476182606236   10.87615042509756   10.92491100624307
C         8.75072447333925   10.39408334637618    9.46435260349619
H         9.32193901568540   10.48449195717699    8.56379019021567
C         8.89335033298063    9.56039240148499   10.51987791560340
H         9.60879524117768    8.78745993555059   10.71082176012923
C         7.29120780061193   12.34814296298648    8.95656169786220
H         6.39474478943379   12.80019812932538    9.41126787705850
H         7.08239583270273   12.06179373631801    7.92580010369868
H         8.09315441043860   13.09004683751642    8.97745276576456
C         7.73945218653055    9.31550098679748   12.72549643205645
H         7.35767741944490   10.11345171635618   13.38852260099316
H         8.71966892083768    9.01774158971574   13.11375326022232
C         6.79747425397643    8.13977758609047   12.77335256756158
C         6.20605230861105    7.63238842819325   11.63062153574810
H         6.45161142240292    8.06735585062242   10.67358965576195
C         5.31177216649261    6.57626619323040   11.69917344492110
H         4.85218961412271    6.19618717204907   10.79933605225602
C         5.01734648235888    6.01037065224032   12.92540587428689
H         4.32250662315049    5.18694257378844   12.99306807497709
C         5.61655438974333    6.48939961055409   14.07775384743557
H         5.37954151000254    6.02690825203415   15.02216436754975
C         6.50520079151852    7.55399525082066   14.01282075907353
C         6.69923039276385    7.25437354582259   16.81809269341459
H         5.62279556829653    7.35914227605781   16.91808751141606
H         7.18904454063604    7.66521898195311   17.69575141917140
H         6.98879038850355    6.21572996944582   16.68784195790888
C         4.21724368006931   10.61733607197175   11.55304658463606
C         2.58256661976731    9.21278463846160   12.09994510173873
H         2.00500806705933    8.57373319248975   12.73516151195300
C         2.42556385680059    9.53618129896042   10.79594600188465
H         1.68858237597965    9.23109626552775   10.08204256837525
C         4.09617886254734    9.97459425357420   13.92672426262425
H         4.30432479694071    8.98233755292425   14.32723527742424
H         3.31013587051472   10.45208751182346   14.51655285980428
H         4.99984842077689   10.60275644120604   13.98819629233934
C         3.59294478210180   11.09840085253856    9.22793415849251
H         4.01854492371250   12.09515866088441    9.44631361146510
H         2.60663006802563   11.26227251905313    8.77994963004747
C         4.48477527697930   10.38471486177578    8.24451172920105
C         4.98029481211545    9.11796421047547    8.49568180851733
H         4.69202654129771    8.61069713987445    9.40389647612731
C         5.83201668826819    8.49398031691872    7.59847164548338
H         6.21816953364199    7.50926206282513    7.81402753752520
C         6.17787997459877    9.13851412416996    6.42563984695642
H         6.84049134112669    8.66389803023937    5.71774837234116
C         5.67033707447604   10.39513031912283    6.14348197469212
H         5.94298855293917   10.87396003457282    5.21693421650077
C         4.82635834168959   11.02727678237571    7.04651027391003
C         4.83520217223317   13.16508093107801    5.19448633871347
H         5.91894468904972   13.21021684651333    5.25069350162582
H         4.43655441089882   14.16136693651091    5.02870186072810
H         4.50405582493322   12.50032440849983    4.40195375370258

