28
CSD_code = QERLII | q = 1 | S = 0 | Stoichiometry = C11H11FeO5(1+) | MND = 7
Fe       -6.42367078821469   -4.68411589763284   -1.42220663023023
C        -6.29565853447029   -6.45143678843712   -1.65022287548382
O        -6.15621254306872   -7.56676098054252   -1.77983581069374
C        -4.89692530754664   -4.45683186904257   -2.30628830230708
O        -3.90958656372951   -4.29285769288343   -2.83563474148092
C        -5.84804385863905   -4.89514419957417    0.26819991081972
O        -5.43095969764489   -5.01880778434932    1.31133840813099
C        -6.42218596258717   -2.77355995227749   -1.23383589410660
O        -7.04687467924067   -2.00200129626897   -2.08685429140903
C        -7.72383950927687   -2.65038638882440   -3.16636163699015
C        -7.68941650058909   -4.16683322009698   -3.07976921415395
C        -8.52310459161000   -4.86800004301523   -2.16412031487810
C        -8.83893835645722   -4.39196262677657   -0.89473134674070
C        -9.56957141645834   -5.18637257515797    0.06341452500060
C       -10.07465672674246   -4.68755678900137    1.19170809291087
O        -5.78792274467036   -2.15553786110145   -0.30132384603349
C        -5.76845404994949   -0.71894576456040   -0.24775159820554
H        -6.77844956326196   -0.33062045428881   -0.11233361796876
H        -5.34544165699574   -0.31235045074343   -1.16686876000212
H        -5.14563753399721   -0.46168724281084    0.60488184072582
H        -7.23904798205938   -2.30399645978006   -4.08371017736212
H        -8.75488313445131   -2.27671814833256   -3.15915293315546
H        -7.59679074227151   -4.62098295840982   -4.06143939217608
H        -8.83318524988341   -5.87736521955450   -2.42285517272622
H        -8.83944117230051   -3.32298083396297   -0.69581056069655
H        -9.70166334104425   -6.23329759848462   -0.17604028855603
H        -9.94846529904551   -3.65229839709116    1.46432793017665
H       -10.63407249379456   -5.29749050699768    1.87827669759236

