26
CSD_code = QERMIK | q = 0 | S = 0 | Stoichiometry = C5H10N2O8Zn | MND = 6
Zn        2.64506430202243    1.79359751032246    3.65261308175763
N         2.78309228099135    2.05478519034532    1.76161615741562
N         2.22793381652435    2.54227862528943    0.64679285557511
H         1.34659173663690    3.04847691702867    0.52074831725375
O         4.29812203168219    0.93354359112525    3.61874374777404
O         5.86058867738569    0.33091453028902    2.15940718380440
O         1.17456938113783    3.44110041466132   -1.40100109247671
O         2.81467716779538    2.79546738983120   -2.80793355287987
C         4.80214068901040    0.85693384410703    2.41732263579894
C         3.94615760450816    1.49231310869874    1.36409466430908
C         4.10121472870187    1.63894968705876   -0.01207288125201
H         4.92044715216113    1.29569916771420   -0.60688949782645
C         2.96611030178576    2.32532916798971   -0.43989787246364
C         2.24413071014264    2.92694060252368   -1.74803653196770
O         1.59529889066371   -0.15233811402895    3.49146203908892
H         1.57928390746416   -0.45646225311919    2.57695620875761
H         2.16269208957394   -0.77200354850398    3.96379364217979
O         0.74539403082369    2.66310673854968    3.99716179952092
H         0.14975447176796    2.67675392989551    3.24156624397283
H         0.29418857461716    2.19434968437760    4.70590109222682
O         2.65889883865178    1.50645895160199    5.77380482771961
H         2.84493850850063    2.35013253736286    6.19904125849003
H         3.47266144445636    0.99124792304436    5.84014836359530
O         3.65013299656369    3.71072574979046    4.17071220818907
H         3.40680325383447    4.45313700427287    3.60798911606958
H         4.58201241259685    3.52766164977270    3.99965598536826

