105
CSD_code = QERSUE | q = 0 | S = 0 | Stoichiometry = C48H44F8N2P2Pt | MND = 4
Pt        6.39412130035695    9.75833497307563    4.53508553264657
P         5.96017184989143    7.57946518037868    5.12784090096726
P         5.72189028571971    9.05287551251499    2.45293319025563
F         4.17760664944613   11.60408972124535    3.57198845738351
F         8.75691775373268   14.53951220869235    3.57703049976508
F         4.10003710533513   14.12497121878540    2.64897689970545
F         8.81194459507512   11.98544153867160    4.31326023300062
F         5.64792557602400   11.84408239431124    6.97654870166790
C         7.22433305834884   10.21559687592645    6.32840675273293
C         5.72805380117934    6.55906594309594    3.59560945487160
H         6.71807695663715    6.33938015007572    3.18199004272683
H         5.22602114718728    5.61670556837831    3.83708433068747
F         6.88872312999071   12.33774599838629    9.27511460655461
C         7.59739305816000   13.83799122722648    3.52462691032986
N         6.33817208603671   15.74208482413763    2.58667190988459
C         4.92368968664796    7.38391706335903    2.59502207983732
H         3.90430780849631    7.52680310766964    2.96908218561108
H         4.87864993148101    6.89751122700820    1.61532814247282
C         6.41874281082332   14.45553985903410    3.08159663037635
C         7.39845010300484   11.37007641420007    8.47322422495571
C         6.49424408612818   11.70793311338016    3.98335685469700
C         8.53860080490495   10.65474114328739    8.86745583521929
N         9.16869291785638   10.78328652992772   10.08907754527014
C         7.62298089424373   12.51276150316622    3.93272904205759
C         6.76456545116129   11.13181824587119    7.26293520694837
C         5.27720362303554   13.63704870336599    3.11041797232428
C         5.32442077998763   12.33527364665840    3.56819492035731
F         8.87386354982930    8.60183415984360    5.85646608329598
C         4.26804458617359    7.59622587408717    5.78851618943255
C         2.28011967691993    8.86444769972143    6.24793743954261
H         1.75078872010350    9.80505621807188    6.24450964323871
C         8.37167885633709    9.53062402563684    6.71400436783340
C         4.78513303766777    9.95097667532372    1.19091941193338
C         3.64782950622679    6.44545609838740    6.26440030247300
H         4.19026776791404    5.50899258705094    6.27997069697182
C         7.25881664894635    8.62289488351860    1.58482191393822
C         6.83509862419595    6.52028228283927    6.30689893709507
C         3.58273772792204    8.80695363435616    5.78554318171265
H         4.08299801273245    9.70613184256518    5.42634663501620
C         3.45908055397900    9.68569945649379    0.87372943543522
H         2.94629289501040    8.84924223075722    1.32555150618793
C         8.45512921260800    8.75156732312414    2.28338898019854
H         8.44334187100319    9.13965816635537    3.30177998449223
F        10.05508818239137    8.92597669721323    8.24587357028601
C         1.66303547059767    7.71622487122795    6.71698352798518
H         0.64718208150278    7.75933170520172    7.08134466381244
C         8.29819278014435    5.16569839987603    8.23389836454233
H         8.87385038435621    4.64057817393962    8.98121130877166
C         4.74736894665533   11.87172356706877   -0.25739893825440
H         5.24353734234752   12.72955409855721   -0.68627841978615
C         7.05084867901674   17.35554033334498    0.92796162977688
H         6.57911748163481   16.77610786022216    0.13187922388395
H         7.92457958085090   17.86081755449433    0.51326511096393
C         8.37630307525887    4.78273436439509    6.90570785853857
H         9.01159548528601    3.95771343204242    6.61839676360149
C         7.26323758621662    8.14933626471210    0.27668887827827
H         6.33211356046349    8.06690890450967   -0.26887929335141
C         2.78934560890977   10.50374078166758   -0.01936718516804
H         1.75858816369240   10.29545287390896   -0.26605380948675
C         8.99370511574603    9.70882772702655    7.93364675276545
C         3.42827813155712   11.59546272291792   -0.58215333082322
H         2.89519080972476   12.23854178271703   -1.26621072375646
C         9.65011322450374    7.92133810778216    0.37941479691245
H        10.58108098932381    7.64631405734443   -0.09419363790195
C         5.42314811847351   11.05484735913565    0.62682709145139
H         6.45088146922575   11.26541834539457    0.89690659874768
C         6.76445799546519    6.90730543458845    7.64442065056641
H         6.13950626392952    7.74876774880953    7.91816431836443
C         9.64892998707313    8.39856661079613    1.68003100214725
H        10.57525376859124    8.49876286679465    2.22485185573248
C        10.59015530699260   11.06869219492394   10.13330611178005
H        10.74502782104126   12.15877793144723   10.19640745923390
H        11.06854011356370   10.71387616850144    9.22253778840797
C         9.02230522152282   10.64107706198014   12.50192253395032
H         8.49717194154854   11.03353781155330   13.37415961935328
H         8.84302176645601    9.56550390946591   12.44824839277847
C         7.65526124541938    5.46147120444671    5.93887417041972
H         7.73871789258437    5.16995682295451    4.90211608010871
C         7.50138575284626   16.40086165259167    2.03439686850592
H         8.17137305611829   15.65279428361977    1.60982812618034
H         8.04928538259558   16.96322444078092    2.80564657498563
C         8.46161751437187   11.29912268071516   11.24051900127757
H         7.40252347371496   11.05600854415365   11.15182107002892
H         8.56406861127585   12.39212226689224   11.31863764947130
C         2.34694240997400    6.50953702200873    6.72760828045907
H         1.86382463929249    5.61787601753220    7.10020264122136
C         4.87863416678304   17.63223821803632    2.10594947773056
H         4.17834677892924   18.33689282254519    2.55680050431728
H         4.34750260701420   17.05812538149503    1.34517983873565
C         5.39580443059812   16.67473143867856    3.17492209586017
H         5.89691748724900   17.25296570510245    3.96919000882880
H         4.56852556585086   16.13069220881301    3.62662712425943
C         7.49111674707895    6.23049449117609    8.60340022788551
H         7.43866660883989    6.53867856215428    9.63700215841633
C         8.45950810324720    7.80021747432178   -0.32182586105994
H         8.46604584600252    7.43374847771949   -1.33821890440983
C         6.05168211553701   18.37144728540472    1.47100479274003
H         5.70132995281477   19.02301327736255    0.66828009229155
H         6.53932995208198   18.99628532342129    2.22348132198928
C        11.21464531236067   10.40036692778760   11.35414956301147
H        11.09395832009718    9.31955393121737   11.26531830419054
H        12.28154261744793   10.62602841450661   11.38661638873310
C        10.52107757938099   10.89620340143853   12.61856085508348
H        10.70032058357614   11.96782820077837   12.73623974635704
H        10.92353429267474   10.38915874873750   13.49747749426001

