63
CSD_code = QERTAJ | q = 0 | S = 0 | Stoichiometry = C24H22Cl6N6O4Zn | MND = 4
C         3.16771200518497    5.80205601638179    4.60363987101689
C         2.85870820930770    7.09635710988336    5.01631674291931
C         1.86604971175183    7.32158245319021    5.95812517285901
H         1.64054214207402    8.32814393438348    6.27062876966472
C         1.17186402530174    6.24533363928964    6.48661078565755
C         1.45700790289150    4.95007994877880    6.08210930779671
H         0.91050473246508    4.11801587369465    6.49549301368560
C         2.45180133988354    4.74274417963460    5.14579219425923
H         2.68987150781311    3.74136587074607    4.82139737654526
C         4.27577930489156    5.52487228356825    3.58944560860726
C         3.78488104758345    5.94402551154246    2.17197350072748
H         3.00430825276815    5.24405884747572    1.86686038868913
H         3.40643323822860    6.96580325470630    2.18862396426376
C         5.66616441153836    4.87757016387422    0.94380410662023
H         5.51288825766724    3.87100976261070    1.27629284108313
C         6.42611797207621    6.62543637952369    0.04692693698832
H         7.04175495530903    7.28079733770997   -0.53408283394842
C         5.76583110894454    3.96159751369950    4.32362589239143
H         6.34502187076939    3.14955615181009    3.88499002114664
H         5.48003133434114    3.72688668515218    5.35590049245686
C         6.48445740857358    5.30735319133602    4.22890094930739
H         6.96326045073436    5.60660784621159    5.16190017397306
H         7.22097623462892    5.30092151509546    3.41801131951884
Cl        3.69452598315136    8.45614102069583    4.37265782745664
Cl       -0.06036346194859    6.52826760943462    7.65497137528176
Cl        8.24185465764185    3.09434464014025    1.97382808701761
N         4.88528446587860    5.91001617408516    1.25730089961163
N         5.36298075263915    7.01886860563878    0.69211319637508
N         6.65846908470092    5.29935241151709    0.17803539065543
O         4.60683899523255    4.16247977639852    3.53127707021357
O         5.44750611123688    6.23149444377488    3.93262711370442
Zn        8.32997988845407    4.06944949592796   -0.00165706435466
C        13.49450484786818    5.80190619809796   -4.60144687617011
C        13.80319414036762    7.09604285137284   -5.01484525984685
C        14.79498842842740    7.32091052557434   -5.95764747777277
H        15.02031765871587    8.32736871331846   -6.27064519472378
C        15.48848651914559    6.24442897852377   -6.48659222329120
C        15.20367888431190    4.94934087268573   -6.08136228809828
H        15.74968351403863    4.11711442655327   -6.49500624669308
C        14.20987510533345    4.74239877633124   -5.14391814529016
H        13.97215953527148    3.74112272780801   -4.81893479404067
C        12.38676550808348    5.52495180150252   -3.58680041078696
C        12.87698483932133    5.94479482154794   -2.16942960406510
H        13.65768644500871    5.24528651278090   -1.86359091458347
H        13.25500107813423    6.96673512022840   -2.18628887613591
C        10.99452281253115    4.87836077540835   -0.94308516579898
H        11.14814050015100    3.87183907602950   -1.27553379237673
C        10.23379205687801    6.62618069860429   -0.04682331924877
H         9.61755735864413    7.28157618569003    0.53352051568235
C        10.89997980575920    3.96104655878725   -4.32491850488045
H        10.31972301593805    3.14873295286220   -3.88829656598981
H        11.18966134326354    3.72640387189814   -5.35613392089714
C        10.18007507166710    5.30639755201742   -4.23300607257377
H         9.70629030326863    5.60595618625423   -5.16849467974535
H         9.43919474780960    5.29893643167777   -3.42618429240380
Cl       12.96795302728154    8.45608228062160   -4.37088324682944
Cl       16.71952368808097    6.52689513793324   -7.65631718881403
Cl        8.41854823031525    3.09842865286541   -1.97904914202802
N        11.77596557968918    5.91071788319201   -1.25546441949824
N        11.29773808242747    7.01955924249818   -0.69069261319923
N        10.00137462023065    5.30014290988614   -0.17842721684575
O        12.05594894333469    4.16258357567669   -3.52835278062907
O        11.21464040694781    6.23106805404974   -3.92978977461237

