36
CSD_code = QERZES | q = 0 | S = 0 | Stoichiometry = C6H17CoN6O6 | MND = 6
Co        1.70255185102463    8.38580369990124    3.98816938325037
N         0.26838364173204    7.30686807211466    2.98192650395586
H         0.66405809424522    6.48339443814614    2.52611297847367
H        -0.11355548041184    7.91034741413597    2.25033395039567
N         0.12111586358748    8.41350653095206    5.58549356541583
N         2.86749686284204    9.55071066504400    5.23000420676543
H         3.62941529517180    9.90031610900606    4.64360815224931
H         3.29616218754076    8.88226159990167    5.88158038041082
N         2.37948016146468    6.82470903016181    4.74781241343094
N         2.94002967816739    8.22876856330937    2.72832101640785
N         1.08454509711127    9.93473813938821    3.17760327582037
O         3.12186588732082    6.90363533045757    5.72509802238344
O         2.05160088770003    5.74811045281145    4.26290776827588
O         2.56197133990483    7.76822859679085    1.68026829632838
O         4.05873671552530    8.57624878189774    3.01100143910266
O         1.88695245318445   10.84493440389416    3.01451505391423
O        -0.08216657615661   10.01494082507194    2.79479787713061
C        -0.81924953900863    6.90302502909274    3.87716962294952
H        -0.50621505260935    6.00551154753265    4.41388539628781
H        -1.73251949495511    6.66625418496629    3.32048222583431
C        -1.10096232155900    8.05385797705168    4.84032670314058
H        -1.41293469032536    8.91661914573267    4.24862705423750
H        -1.91244632642081    7.78924074197052    5.53048914805916
C        -0.05063490691833    9.75470334483184    6.16916073616396
H        -0.89387261084773    9.73186507487878    6.87639420828964
H        -0.30941430355888   10.45055997806677    5.36835138408161
C         1.17852395526142   10.29267383094094    6.90290470413918
H         0.86716408929325   11.18520488664228    7.44820634349940
H         1.53401090953917    9.57051143977245    7.63760013098880
C         2.32654267998374   10.68855244737934    5.97916779415748
H         1.98702171163628   11.44212011026512    5.26510955856485
H         3.11906815210936   11.14119001351695    6.58817666140727
C         0.29251873604765    7.44558771639816    6.67550616498861
H        -0.50338333963047    7.56201822262602    7.42079892964476
H         0.25453072773685    6.42935954913559    6.29298029544984
H         1.25420766427162    7.57152210621429    7.16460865440443

