35
CSD_code = QERZET | q = 0 | S = 0 | Stoichiometry = C11H15Cl2N5OZn | MND = 4
Zn        2.06009598185043    2.72019604233506    8.98783709751897
Cl        3.24246269957724    0.85919048909611    8.47261980965136
Cl        1.87865059208618    3.70558148107206   10.91315285592914
O        -0.20051576030073    3.07738873955403    4.33974504232901
N         0.20012752484963    2.40353992532659    8.17639883883623
N        -1.42259021909474    1.70778044136872    6.88048720333452
N         1.65753516124952    2.37636976643956    5.43045239515887
N         2.83888154904126    4.12250578011634    7.65728697989016
N         3.94720443119886    4.96798277297758    5.96692640940382
C        -0.08851819591847    1.79478254641202    7.03828852782319
C        -0.98113600131447    2.72300704436853    8.76733443259160
H        -1.00610962944169    3.23089123547095    9.70984836216709
C        -1.99774909821126    2.29275399177758    7.97049901450616
H        -3.05940022399219    2.35190942148129    8.09201699390324
C         0.93809949398796    1.28653422893094    6.08213792539776
H         1.66484629496737    0.68817970372527    6.63863703824952
H         0.45572836880818    0.68040865549931    5.31040400197932
C        -2.12757749729617    1.13734959146900    5.76502369924840
H        -1.82112434696793    1.64483393037403    4.84815068014464
H        -3.19583642125122    1.27550376980967    5.91426556209335
H        -1.91677334667804    0.06983653680216    5.68268893918205
C         3.28663389217879    3.88833686360072    6.43897499289951
C         3.21524714675129    5.38588257725035    7.98670439304419
H         2.96284133694010    5.80196307751373    8.94063213165606
C         3.90916646233838    5.92195895056467    6.94617345769323
H         4.37217049495258    6.87916093229820    6.82637203723914
C         3.06624903054368    2.60800487006472    5.70525046049519
H         3.62872559720342    2.60330052212068    4.76694953909615
H         3.41951215682023    1.79254655253859    6.34902106725875
C         4.62056526119154    5.09724054719926    4.70305486478201
H         5.45033300215193    4.39110952761224    4.63594827832893
H         5.01309510375915    6.10810060441935    4.61526401147250
H         3.93289071060503    4.91604180886152    3.87519018382492
C         0.97305286430396    3.18864106317979    4.61300804919001
H         1.60331558310993    3.98708600836926    4.17935472368122

