25
CSD_code = QERZIX | q = 0 | S = 0 | Stoichiometry = C4H8CoN5O7 | MND = 6
Co        0.00018948370218    1.70606142731007    2.46463553985045
O         2.66858709570216    1.57250275149209    3.68352904126716
H         1.99900632857868    1.60888195338470    4.46138110425076
O        -0.61016488595554    1.56259880971290   -0.27821461429642
O         0.00223867760015   -0.53638546515071    2.46364558518354
H        -0.39456138884011   -1.09265804220258    1.78830262433872
O         0.88464692576578    4.00843390253874    1.84873313029710
N         0.31847061833025    1.60476222481340    0.58956299627649
N         1.91043315515684    1.60236554229840    2.56791779298640
N        -0.00012481482993    3.47539104205850    2.46480526504603
C         2.46573849776165    1.51408621121085    1.41157167642540
C         1.58056718521549    1.51111214791402    0.29645966618189
H         3.53972438662214    1.43685647487975    1.30168049745165
H         1.92426278775166    1.42940773826244   -0.72542798644435
O        -2.66822357506144    1.57183232347944    1.24574578235458
H        -1.99858313203756    1.60855578208416    0.46788469546027
O         0.61041403997407    1.56210736154946    5.20759860030315
H         0.38977711037756   -1.09243687059558    3.14364512354924
O        -0.88499525057324    4.00806645157673    3.08108833368837
N        -0.31815355058539    1.60431319430935    4.33975372754604
N        -1.91006624324506    1.60173489389530    2.36137077003252
C        -2.46543404565654    1.51367002423867    3.51773269805055
C        -1.58028656501293    1.51070236017369    4.63286026776437
H        -3.53943688268752    1.43662304961236    3.62759177295602
H        -1.92402595805333    1.42911471115388    5.65474590947999

