57
CSD_code = QESLAC | q = 0 | S = 0 | Stoichiometry = C26H26I2P2Pt | MND = 4
Pt        9.54977376398514    3.32372985757393   11.09769004060194
I         8.13660621538455    1.58763572068056    9.76336465839201
P         8.56519678042991    4.91163162689814    9.79871460548906
C         7.00100440871016    5.16472545734177    9.15108605062801
C         6.63307432467364    6.30659670195048    8.46115084398738
C         7.52262023814149    7.36124697628793    8.20757612086966
C         8.85513748864117    7.32299388084983    8.59398430673217
C         9.47094614247019    6.29421136384043    9.28858590895843
C        10.89590106141113    6.30916675966272    9.63130910617432
C        11.66136214709388    5.15196313888403    9.45767634485706
C        12.99819861553771    5.13091050955043    9.81282436536948
C        13.58636133201277    6.26039721810237   10.35826716603890
C        12.83798918741266    7.41344460276941   10.53060925027362
C        11.50412696682366    7.44144286063153   10.16887446814679
C         5.21872742197683    6.40290940764967    7.97524222289147
C         7.03077824702456    8.57046487817871    7.46894988321137
H         6.27231059517977    4.37956948233581    9.30858484270836
H         9.48195038342391    8.16028055248206    8.30833708825286
H        11.21415202120563    4.27996725383609    8.98359394102545
H        13.57849874159678    4.23238572571488    9.66576346217192
H        14.62719181289897    6.24280421591073   10.64425406093213
H        13.29463295913561    8.29695262785918   10.95225515439937
H        10.91948355598817    8.33796294004743   10.31831074835497
H         4.66004579819958    5.50702630721634    8.23135160118077
H         4.71975671101901    7.26275005408596    8.42075196230113
H         5.19312309495336    6.52817320482153    6.89358810979749
H         6.67223907140371    8.29774138341246    6.47719497639704
H         6.20242924100774    9.03673782664612    8.00116100011417
H         7.82377295761752    9.30459862273269    7.35584292295438
I        10.96268979818203    1.58651648934779   12.43126588662554
P        10.53472976734964    4.91114599848844   12.39698196653083
C        12.09898993506924    5.16431802055122   13.04445070779838
C        12.46704040374586    6.30629311093037   13.73419354090755
C        11.57753341355338    7.36105968278067   13.98757474370387
C        10.24495519706127    7.32272786955284   13.60139007387861
C         9.62907049450999    6.29380352595707   12.90706426946672
C         8.20407153706292    6.30871198669370   12.56452799803301
C         7.43874825457224    5.15144556019015   12.73834974771167
C         6.10191094768207    5.13017900087876   12.38321957944448
C         5.51360713350905    6.25954332215009   11.83767250449068
C         6.26180111183933    7.41270330517679   11.66530349941022
C         7.59567716814135    7.44090158031432   12.02697135569638
C        13.88136812182659    6.40266053216188   14.22006058955352
C        12.06940970429457    8.57045883057043   14.72588876925921
H        12.82759985268385    4.37903868346395   12.88726449189123
H         9.61828364586478    8.16022740248326   13.88666802341985
H         7.88606047422985    4.27959179795516   13.21258916135889
H         5.52173909079765    4.23159170488754   12.53040201340813
H         4.47278512944678    6.24178588913254   11.55166215895566
H         5.80500128235001    8.29614011350877   11.24367825617649
H         8.18020988677616    8.33747950954418   11.87744030214463
H        14.43978702628448    5.50614212803603   13.96501928254212
H        14.38064515244107    7.26186062865211   13.77326078675778
H        13.90700773755751    6.52946020527359   15.30166843719979
H        12.42696733049408    8.29777753696141   15.71830344329683
H        12.89862989085513    9.03603895217065   14.19399257992560
H        11.27638922649076    9.30517547415296   14.83804061717976

