43
CSD_code = QESMAC | q = 0 | S = 0 | Stoichiometry = C22H13MnO7 | MND = 8
Mn        3.37347588985314   -2.99533275604488   11.20734604426326
O         5.13209859262220   -5.11445001506050   12.21767768861002
O         1.38068384332370   -4.82457767393344   10.06731591751437
O         4.90789037689967   -2.56468673586931    8.74838997341866
O         4.90132418772824   -1.62545672407105   15.08067179587123
O         6.06913761156468   -2.33134173708928   13.27039240469385
O         5.78066553960223    0.33886535004757   12.20222917127299
O         4.82291396647739    0.33975219616951   10.14616861100442
C         3.85250769850962   -0.97937506854273   11.78596504087292
C         3.84110605922397   -1.79310174351932   12.95570547365481
C         2.53664319651651   -2.32209851747977   13.10822562547254
H         2.18588871685905   -2.86427678752899   13.97529924114666
C         1.73661617389175   -1.82457599622696   12.05101674772558
H         0.66505409734336   -1.94592340418903   11.96546437531046
C         2.54064412130080   -1.01617998137934   11.22144079858927
H         2.19084428922599   -0.36864224529629   10.42920436475150
C         4.98106362109063   -1.88930309348736   13.91137775706592
C         4.93768858960746   -0.04051488778972   11.42940433503254
C         7.29734176004095   -2.36009211836743   13.93240562910737
C         7.78940270815342   -1.23584958013940   14.57443723723163
H         7.21015745961987   -0.32608134062799   14.58157476955391
C         9.03057545610927   -1.30224690703009   15.18285138495370
H         9.42226480949861   -0.43165308308003   15.68680561544408
C         9.76727679086292   -2.47388744194962   15.14479136496385
H        10.73410816861328   -2.51878913111853   15.62336571195967
C         9.26752139424693   -3.58758540294138   14.49001341026290
H         9.84231937263842   -4.50077723282626   14.45566178362996
C         8.02689090930708   -3.53808703349623   13.88054182320068
H         7.61689210527167   -4.39416190352281   13.36717079878627
C         5.72962915813330    1.23707515357669    9.58490987231545
C         6.11024070330897    2.40667443532896   10.22282994269469
H         5.73577526735391    2.63963702882950   11.20707263562231
C         6.98293345597324    3.26800789175639    9.57950490577957
H         7.28617413708280    4.17920793537774   10.07253096708422
C         7.46170466478417    2.96838662456774    8.31619838812401
H         8.14191694015935    3.64575889108758    7.82241983589472
C         7.06775080494065    1.79944895533742    7.68519176360074
H         7.43874551129237    1.56242007091562    6.69964209473315
C         6.20148788357928    0.92702120272531    8.31671324483278
H         5.88501795003420    0.00821020329531    7.84787300442744
C         4.43727214634359   -4.31061605329010   11.79242180926592
C         2.18785042114330   -4.13089437676186   10.49547785801161
C         4.29700344986850   -2.79050696635854    9.68969878224692

