83
CSD_code = QESMEG | q = 1 | S = 0 | Stoichiometry = C32H44Cl2P4Tc(1+) | MND = 6
Tc       -0.02106221357036   16.81485537824528    1.89378536589859
Cl       -0.58776306144413   15.22443847912706    0.36298863700241
Cl        0.43644701323047   18.40738946336309    3.46014299556269
P         2.31445951594192   16.12139284929446    1.56724163826886
P         0.29078624691675   18.55121645393963    0.17850700906758
P        -0.22562368430165   15.27952095872994    3.81331583470487
P        -2.45134480490106   17.29111090902137    2.02505828977105
C         2.51311106803514   14.30189985679425    1.64633130623128
H         1.82260887495420   13.83053560289395    0.94842543016908
H         2.30931527123391   13.95447023539993    2.65704689614137
H         3.53506022558189   14.04147006231577    1.37026925140191
C         3.55660646704846   16.66231853213178    2.78871434198994
H         3.17948597284911   16.44557995178681    3.78703432071402
H         3.72371942163406   17.73364990020368    2.70431935328514
H         4.48889021726483   16.12085355577767    2.63183532282969
C        -0.29383275442713   18.17701911263999   -1.51149217969189
H         0.38020117297203   17.45625283552184   -1.97037668169795
H        -0.33319884175599   19.08815820873123   -2.10740126160957
H        -1.28357962293325   17.72952516589023   -1.46324798290678
C        -0.49893545654294   20.17414660030959    0.52176098576600
H        -0.16738672087537   20.52219698885996    1.49943726179213
H        -1.58367682981349   20.10583955262584    0.51398753558663
H        -0.17603022970173   20.88795728930454   -0.23652038065214
C        -0.91211556064952   13.62642764437338    3.45696720450250
H        -0.28769122281804   13.10232823907139    2.73571571785558
H        -1.90103061390552   13.75825958342897    3.01916588752534
H        -0.99855954728181   13.04834074359625    4.37627251988138
C        -1.36604745211836   15.85572063667023    5.12634904221050
H        -1.10384963513910   16.87081701073985    5.41983838124986
H        -1.27509665218061   15.19816858852654    5.99110979160835
H        -2.39030207772465   15.83334774287807    4.76098777058336
C        -3.30294347265201   17.68382847680577    0.44598859029318
H        -3.16853823343844   16.85440784683444   -0.24661871350909
H        -2.91332948972216   18.59449831933611   -0.00086665401897
H        -4.36788422413977   17.80656823163838    0.64603887016533
C        -2.90034185871831   18.73645666905348    3.04798806965924
H        -2.64059009431128   18.55143589039917    4.08859839906817
H        -3.96382483916889   18.95334073206560    2.95581695645151
H        -2.32238083220673   19.59463661554429    2.71070526686841
C         3.12656655744845   16.39135588197326   -0.04255521712678
C         4.39168020076047   16.95120700482921   -0.17177927394746
H         4.92204242877945   17.32319374656864    0.69018959166611
C         4.98175236380389   17.04767536553881   -1.41989517514698
H         5.96655464973823   17.48039890772402   -1.50989747301930
C         4.32051205545163   16.58936340667202   -2.54614410520250
H         4.78730715210563   16.66447818791930   -3.51618414400057
C         3.05989174650301   16.02825127061104   -2.42319681347331
H         2.54286799034558   15.66072084983487   -3.29738783658649
C         2.46727728593929   15.92715573680864   -1.17847060384256
H         1.49093819483401   15.47264718464366   -1.08002217251289
C         1.97415026480017   19.20399346729312   -0.08143757296241
C         2.66935881170707   19.63182213344201    1.04705296345323
H         2.22351414884226   19.50936488479048    2.02494918174337
C         3.91025466347752   20.22794995313376    0.92214319662784
H         4.43915705687225   20.56151798557439    1.80283880388080
C         4.46806623149296   20.40777369857191   -0.33303854906790
H         5.43433722687298   20.87749982734582   -0.43396976491682
C         3.77916798960627   19.98851634677142   -1.45790521823430
H         4.20708676726852   20.13192777302043   -2.43843705374379
C         2.53673663536948   19.39059081322374   -1.33809026633948
H         2.02244314727440   19.06917070913654   -2.22960840002206
C         1.21076466835348   14.92894644119841    4.88547353864728
C         1.74214689360351   15.98360981634989    5.62665681983906
H         1.33005326982901   16.97685186431984    5.51738767829571
C         2.79589073006706   15.76907827436235    6.49651094967403
H         3.19404576311099   16.59283386664179    7.06928446631093
C         3.33697393956493   14.50062757157975    6.63200074072703
H         4.15782318946588   14.33165681569855    7.31138934198188
C         2.81712893185753   13.44933523676140    5.89649357703343
H         3.23144222898931   12.45811338633061    6.00174298688383
C         1.75888373318139   13.65810615051388    5.02802515066676
H         1.36046180332166   12.81985105877759    4.47553635655535
C        -3.63248261002243   15.99950093726356    2.55583322840570
C        -3.71072315592500   14.83842227640953    1.78889262590012
H        -3.04770765826546   14.70765864583949    0.94519253771526
C        -4.62815306514784   13.85112351507386    2.10045856480926
H        -4.68066755515183   12.95873809324869    1.49540655057961
C        -5.47763955422767   14.00952950392062    3.18334817432417
H        -6.19549588072008   13.24167440162097    3.42607871189874
C        -5.40536728095970   15.15970990134145    3.95051013771707
H        -6.06759018870253   15.29108372221329    4.79276473123697
C        -4.48992829606719   16.15177581290794    3.64149563276020
H        -4.45735491666032   17.04221665833051    4.25124301079149

