43
CSD_code = QESSAI | q = 0 | S = 0 | Stoichiometry = C21H18AuN2P | MND = 2
Au        1.07089954824345    0.17581963236438   -1.52980905555226
P         2.55292224181866    0.01194166285169   -3.19304232054909
N        -0.24294587064180    0.32213605782420   -0.02630432300098
N        -1.35256598239015   -0.14270448412222    1.85709056772922
C        -0.40209821918030   -0.50262352220132    1.03203956564338
C        -1.86011969852878    0.99615224524044    1.31768005157373
C        -1.19129321808179    1.29120894523699    0.16477381681482
C         3.63188718645685   -1.44294718244498   -3.08970471246096
C         4.25154680996982   -1.65306209943667   -1.85957492518276
C         5.08694307807240   -2.73841759472079   -1.68254801815587
C         5.29721531160524   -3.62488816138997   -2.72805845067389
C         4.67374998711804   -3.42316182943649   -3.94822485979258
C         3.84041326091728   -2.33383617993024   -4.13564272396567
C         3.73536440053686    1.38141618258695   -3.31382487725113
C         4.98296537949049    1.22836062946079   -3.91267579675412
C         5.84249468753002    2.30865153116042   -3.98712374662419
C         5.46452400873759    3.53762221011809   -3.46823622092177
C         4.22465962447265    3.69040086344390   -2.86896634919685
C         3.36051930616324    2.61357107520425   -2.78814721758045
C         1.81724275514178   -0.10214815153310   -4.84599417057115
C         2.18487284543014    0.70566638757597   -5.91514243772143
C         1.54333514823031    0.55923205686266   -7.13320499458588
C         0.53995904514210   -0.38307359711215   -7.28643060307740
C         0.16423236683003   -1.18219830230543   -6.21688855650911
C         0.79475058638758   -1.03769767158303   -4.99668832564583
H         0.20845061128572   -1.37681888666100    1.16778557786832
H        -1.30911982154189    2.10066781609097   -0.53094076852460
H         4.06661159274068   -0.95775990788227   -1.04974097616064
H         5.56873433290739   -2.89916669663426   -0.72983068976220
H         5.94501063522914   -4.47732150635452   -2.58920240332597
H         4.83631092591487   -4.11685982109200   -4.75998562996218
H         3.35389450396039   -2.17733637403981   -5.08857921729974
H         5.27337341272206    0.26662281465013   -4.31372349912548
H         6.81112898032904    2.19227698431011   -4.45039000846024
H         6.14127136935157    4.37681640719267   -3.52732432767736
H         3.93381490011188    4.64647979205215   -2.46033895990538
H         2.39251698829787    2.71426943505206   -2.31327638082979
H         2.96544835660064    1.44400658063629   -5.79557685660077
H         1.82781410265463    1.18580556165914   -7.96559071263329
H         0.04377387105828   -0.49141398016967   -8.23915611631086
H        -0.62378956565928   -1.91086461724043   -6.33452668697468
H         0.50536609887279   -1.64477768379604   -4.14738572349039
H        -2.66678588431376    1.52415337850595    1.78883206318472

