69
CSD_code = QESXUK | q = 0 | S = 0 | Stoichiometry = C24H32F2N4NiO6 | MND = 6
Ni        2.56820724312873   -1.15537272899283    7.56996051466874
F        -2.05461528112990    1.76977903189003   -0.01914060675076
O         5.94027247107401   -2.97823053544900    6.97196443255733
O         3.81391176072886    0.74845099745118    6.86961271800890
H         4.66385685799519    0.44010248196600    7.20691089074808
H         3.59739977023931    1.56995998360437    7.31735831996832
O         4.25401658972748   -1.80820928348821    7.77575921172706
N         1.14240560235684   -0.87860393400092    3.61898832941875
N         2.75378587915094   -2.22733959882516    5.58343893037717
C         0.31193673040999   -0.18247174971880    2.75012798266244
C         0.37200952363502    1.20657490530259    2.60565058235708
H         1.02213964482093    1.79256143059327    3.23442059332505
C        -0.41513832619773    1.86229993980901    1.67805365394179
H        -0.36988329408366    2.93481859306871    1.57292760052733
C        -1.28043192694422    1.13076483053767    0.88915146657356
C        -1.37006578202423   -0.24418477932356    1.00756950599898
H        -2.04978219671973   -0.79399961646042    0.37593119009835
C        -0.57385271626733   -0.89096219592868    1.92919841496231
H        -0.62827985928162   -1.96633768647439    1.99849694341444
C         2.25862058309069   -0.21419617789696    4.25151512924017
H         1.95827851487471    0.31294246704315    5.17030893836437
H         2.70959207593903    0.49055840591211    3.55308107019942
C         3.30320474283953   -1.26545821496800    4.61683845947002
H         3.60331964752796   -1.80145048136143    3.70328912521675
H         4.18012661099869   -0.78029218320821    5.04468168745357
C         0.56465449130991   -1.85568089143451    4.51984472257773
H        -0.27441196990719   -2.35959866919040    4.04248847648676
H         0.20715612830016   -1.35802185866158    5.43261074934092
C         1.62613713182591   -2.88178539045228    4.90797273314354
H         1.18143272143983   -3.63425184459772    5.56317790661960
H         1.99170425750708   -3.38653178625720    4.00039795531446
C         3.79219747478233   -3.21785317927932    5.90918376271411
H         4.34059896018287   -3.54327015462667    5.01571962183844
H         3.33740518130355   -4.10154716327001    6.36667838827608
C         4.77699748193936   -2.63551598097531    6.95361177323007
F         7.19110195231253   -4.08064224741322   15.15916413771836
O        -0.80382397666247    0.66747224461959    8.16803055391663
O         1.32234275857234   -3.05911225883753    8.27024645268987
H         0.47256859544696   -2.75111639550753    7.93238655950216
H         1.53926919917300   -3.88072541795622    7.82300115751013
O         0.88242644153710   -0.50253838915341    7.36415941148460
N         3.99405124964033   -1.43246722024333   11.52090773061666
N         2.38264936714935   -0.08360872229892    9.55654488795348
C         4.82449353924477   -2.12855133319758   12.38981837232058
C         4.76443550783147   -3.51759174551436   12.53437252280976
H         4.11430361126121   -4.10362045807472   11.90564278282142
C         5.55159913535959   -4.17326160724025   13.46199652996485
H         5.50636197577380   -5.24577626207462   13.56717477435711
C         6.41689345319856   -3.44168119953319   14.25085500836596
C         6.50650098406431   -2.06673514253033   14.13237515978271
H         7.18621390499863   -1.51687824569647   14.76397970814151
C         5.71027225447492   -1.42001351262133   13.21072318351876
H         5.76468234048753   -0.34464007681230   13.14138513498248
C         2.87786286669860   -2.09685901467179   10.88832344141860
H         3.17822973910619   -2.62391016238278    9.96948711026553
H         2.42690001022512   -2.80168705526465   11.58669028314296
C         1.83324644588241   -1.04560048372134   10.52305464069637
H         1.53307850733591   -0.50969994388936   11.43663710360286
H         0.95636036593315   -1.53077340765280   10.09514700045047
C         4.57177449653055   -0.45530359383612   10.62012784052356
H         5.41084310099996    0.04858893852161   11.09750389499261
H         4.92926044775938   -0.95288431619123    9.70731552295692
C         3.51026732493405    0.57080790615969   10.23209882390959
H         3.95494334942851    1.32337381416567    9.57698904592996
H         3.14466324720330    1.07542602371533   11.13972850603915
C         1.34422959840270    0.90693213001716    9.23087505687410
H         0.79580502732490    1.23225691614836   10.12435044892911
H         1.79903779233735    1.79067044464240    8.77348201184744
C         0.35944866146114    0.32470281198941    8.18634402589115

