60
CSD_code = QESXIV | q = 1 | S = 0 | Stoichiometry = C18H39NiP2(1+) | MND = 5
Ni        9.79292288188101   28.89410205446890    2.40396504918134
P         9.38616627384483   30.62862191081074    3.65512216013475
P         8.54998638411396   27.61417673850909    3.65699142068018
C        10.12512383622521   27.58814561746088    0.93182880886477
H        10.24929010041335   26.51252756419636    0.95744597355935
H         9.30409641949251   27.92306913146756    0.29364678935104
C        11.24997064877897   28.41400309359048    1.07775903035701
C        11.00226278856306   29.79778422435601    1.09651186033362
H        10.23645981173768   30.20827706084657    0.43647881168196
H        11.83470410539625   30.46788190071751    1.27745557934352
C        12.59834121403207   27.85545910401750    1.42082622056209
H        12.52766325310063   26.87654499414658    1.89007819404577
H        13.16398551155898   28.52415505703658    2.06703711643632
H        13.15929387091164   27.73993217006132    0.49265956431894
C         8.16685019218220   31.70065491965982    2.74534037275835
H         8.78853945438525   32.27559326367454    2.04837985195021
C         7.37966115829662   32.66529812128631    3.62358635441175
H         8.03231098408582   33.24010395058725    4.27640594351672
H         6.65082893742241   32.13789543496527    4.23441264311626
H         6.83397928287016   33.36454251227067    2.99341470745872
C         7.24432763349909   30.80456574960794    1.91995747683702
H         7.82356029509126   29.99838270884402    1.44770589700609
H         6.74861581797090   31.37589275451713    1.13853359055663
H         6.47714492999244   30.35602867831617    2.54570547137115
C        10.60794319976132   31.80776331905291    4.41522481582373
H        10.11756437680498   32.26649060056562    5.28184199169835
C        11.03957303942898   32.89740237650933    3.43865581545217
H        10.22973838709801   33.58723771955074    3.21804780966222
H        11.39601541599197   32.46509834970590    2.50606850382152
H        11.85431849547463   33.47286538315183    3.87330803860811
C        11.82088104274107   31.00795744656019    4.88677571823315
H        11.55532939277230   30.29628736923118    5.66448808447610
H        12.57852515812192   31.67516784458895    5.29094509491207
H        12.25839204995410   30.46057632212802    4.05229213546493
C         8.50378087530393   30.00003470967250    5.16155316366382
H         9.27416250813497   29.80431921531103    5.90994047619363
H         7.85787205021410   30.78598966265297    5.55863935318368
C         7.70663096051845   28.72779929640668    4.88171568017289
H         6.73985743376506   28.98716779183664    4.44493702342832
H         7.52165228401936   28.17751333632166    5.80734471496915
C         9.64928735285053   26.54599462239101    4.71608796082585
H         9.11585658039906   26.29727034234065    5.63986835888787
C        10.04101956307669   25.25926346893889    3.99595126711708
H         9.18299280527855   24.61773075167989    3.81480913537948
H        10.74871127665937   24.70050211265039    4.60518698716038
H        10.51982343270644   25.48411191659806    3.04541655918093
C        10.89736225561413   27.36723804407929    5.04591261760564
H        10.69155801041720   28.10127527764545    5.81981072371481
H        11.25037942073468   27.89258143893588    4.14675048570199
H        11.69946648941563   26.72429557686530    5.40138987502176
C         7.19225054091618   26.49016228910683    3.07180347845523
H         7.70683133147809   25.70148410437860    2.50996800547791
C         6.40224568036981   25.86149070820323    4.21491161075112
H         7.04978798060807   25.34178818710853    4.91638508209492
H         5.69860652439748   25.13717522058106    3.80974207056293
H         5.83046418412451   26.61090114025609    4.75613144698345
C         6.27213925831251   27.22583799622732    2.10154216041430
H         6.84803577639500   27.71460039058304    1.31727925175133
H         5.67371900675996   27.97510843677121    2.61431271266681
H         5.58904007353007   26.52177851599765    1.63231290264807

