71
CSD_code = QESZIX | q = 0 | S = 0 | Stoichiometry = C23H44CoPSi2 | MND = 7
C         9.84665233666114    2.98623058991067    1.69943150730461
H         9.54559839940818    2.36932983322274    2.53248541322055
C        10.49482521363797    2.55052684195025    0.53432024728830
H        10.77657047353515    1.53688862452621    0.29488079665821
C        10.81827332090326    3.70237880627102   -0.22752304176405
C        11.49350740791742    3.70273484804080   -1.56793108516574
H        12.13620301461608    4.58497299958767   -1.63888265058943
H        12.13749910411398    2.82142557616607   -1.63874246799354
C        10.48935756989112    3.70185885056953   -2.74530076923630
H        10.65605601909923    2.82456741922938   -3.37210017536422
H        10.65596328006857    4.57824724188747   -3.37339300601942
C         7.08071964414572    3.70201693713899    0.46932246597980
C         5.87464375213407    3.70203656535738    0.93613035787305
C         8.02166445340300    2.14082226668246   -3.00582300692844
C         8.23960404905958    2.01663799950799   -4.51233449135706
H         9.26031221969874    2.24857005438454   -4.80620320633478
H         7.56873257206379    2.66803588537598   -5.06422004221557
H         8.02985539921308    0.99205553168703   -4.81946370643540
C         8.74012124142730    0.99819372573606   -2.28185149387804
H         8.33997824753229    0.03624852677276   -2.60012553695409
H         8.58580207623784    1.09834258456704   -1.20724407844358
H         9.80940805649474    0.99947269514473   -2.48268677403816
C         6.53088858920930    2.03129525479715   -2.68546195165380
H         6.19360381051487    1.00538822358487   -2.82862378687023
H         5.93576538072307    2.66734417602050   -3.33396461598492
H         6.35215228992129    2.31706530587798   -1.64999441386389
C         6.27710621537575    0.61615967930490    0.94411822380480
H         6.22803188103694    0.28269092468147   -0.08693887937570
H         6.09484928807191   -0.24643008728574    1.57823737241171
H         7.29098947748003    0.95856606350459    1.12828455355066
C         3.50814379408070    1.81975557716338    0.15932913783735
H         3.74637973872635    2.03272491505226   -0.87769683926706
H         2.70490910302518    2.48557742116952    0.45596970949623
H         3.12552739587276    0.80492512678591    0.20898819242345
C         4.48505271358135    1.91388418774434    3.11472447322117
H         4.21533453671370    0.89410590553764    3.37316163296779
H         3.62026616580513    2.53800740263177    3.31129627400373
H         5.27768446887857    2.22518769903463    3.78697940353179
Si        5.03524672045061    2.02371516588362    1.28996368946447
P         8.70728826539769    3.70201932883783   -2.17203937445293
Co        8.76978877999876    3.70206136220284    0.01749539912880
C         9.84642942922042    4.41758464646150    1.69966132895941
H         9.54519437815062    5.03412876955317    2.53291523606649
C        10.49451649100800    4.85386964090129    0.53471175489026
H        10.77599009037328    5.86766506613401    0.29562093150512
C         8.02181051930898    5.26327297906419   -3.00583960364115
C         8.23951400986768    5.38733849694310   -4.51239153462627
H         9.26015485246673    5.15532003423041   -4.80642269084585
H         7.56850057691285    4.73595538420209   -5.06412172968155
H         8.02979252248168    6.41191797512982   -4.81954853834356
C         8.74063185382344    6.40577947058449   -2.28204319494275
H         8.34076754013645    7.36780830935630   -2.60041763256625
H         8.58631402657226    6.30581014000380   -1.20741922387604
H         9.80991127861494    6.40412785828557   -2.48292078350603
C         6.53110354270550    5.37312821231991   -2.68526561527216
H         6.19403050204599    6.39911177439488   -2.82838039600294
H         5.93574368261972    4.73721684238618   -3.33368580955806
H         6.35244188593998    5.08739269689468   -1.64977664497477
Si        5.03528637831489    5.38037847414376    1.28994688137084
C         6.27718328174222    6.78791885952804    0.94415707736601
H         6.22824081873953    7.12133764563969   -0.08687309782705
H         6.09488463721495    7.65052053293137    1.57816770295935
H         7.29100872313832    6.44556697649780    1.12843565151145
C         3.50826803563650    5.58437133969742    0.15920831794231
H         3.74658774335394    5.37145184797956   -0.87780777744523
H         2.70502132180714    4.91852444475343    0.45575795428334
H         3.12563465010154    6.59919470251772    0.20888546693092
C         4.48491961675235    5.49018538548303    3.11465890902837
H         4.21538818426061    6.50999869401354    3.37315523505594
H         3.61997210405063    4.86623315211850    3.31107420918591
H         5.27740085651268    5.17865161160383    3.78698416007358

