28
CSD_code = QETDOL | q = 0 | S = 0 | Stoichiometry = C11H12AuClN2Se | MND = 2
Au       12.32352870472294    3.84123938510013    2.91528986011844
Se       12.95339361543964    4.70706379313088    7.24214525060755
Cl       12.70898603347199    1.80680890061386    2.05416661817995
N        12.30281393001820    6.84792872586921    3.16860242872420
N        11.68637012443603    5.92034229204477    5.00059111721646
C        12.72797375380968    7.05789151502607    1.81416320128627
H        12.88172600079298    6.08771833674075    1.34325427614597
H        13.66204137995511    7.62127788913295    1.79516966184537
H        11.96903545913802    7.61157709321600    1.25862373663996
C        12.08290469130306    7.85604953735229    4.06939409763990
H        12.21439258878149    8.88820089787448    3.81851285400165
C        11.69685101073600    7.27188197243658    5.22664075492890
H        11.44007079262580    7.69248810201796    6.17704462186901
C        12.06428656958485    5.65249845645423    3.73296961565889
C        11.40394422254575    4.94712381212749    5.99487393045989
H        11.21318109962565    3.98246062497669    5.52044447022913
H        10.56149428118492    5.25502054285514    6.61709800544418
C        14.13770774493578    3.94396103558196    5.91445356451617
C        14.07954457933206    2.58571613981771    5.64849303060094
H        13.40745336850540    1.95318750808385    6.20995629852548
C        14.88038095459278    2.05472520949912    4.65343018615465
H        14.82445470694786    1.00255234873511    4.42412192223216
C        15.73327045087488    2.87826458627907    3.93760260410727
H        16.34555527497476    2.46220679076850    3.15244891984770
C        15.79415099589062    4.23301489169887    4.21846223567628
H        16.46198634093333    4.87424613143639    3.66126432726275
C        14.99734357267816    4.77298335234457    5.21283044300498
H        15.04105775216655    5.82807012878627    5.44545196707210

