54
CSD_code = QETJAA | q = 0 | S = 0 | Stoichiometry = C18H28ClNO4PRh | MND = 4
Rh        4.91137406361096    5.92161725732494   10.75201056585632
Cl        4.68595215616479    7.83174904946472   12.00559832901868
P         5.48921667821629    3.93633176521109    9.86136292472181
N         4.14316198674379    4.89159011226493   12.26565431350306
O         6.05544794186410    7.63106934721712    8.60333895045897
O         5.88956753858218    2.81730638592271   11.00668944060865
O         6.80652955369352    3.77787079980333    8.97745226747984
O         4.42466298325969    3.15934640028330    8.95931782719666
C         5.62026530297309    6.96502914502407    9.43028550005348
C         5.07005685863006    2.65811318684603   12.13499060249288
C         4.93061021503163    3.93027389677156   12.99753187880012
C         6.29751159726627    4.51506098990672   13.37194180963916
C         6.17187132028540    5.58980578898630   14.44457654814525
C         2.94491419503840    5.13702709977700   12.63417194658674
C         2.08107771468679    6.02732629673529   11.88325385943505
C         2.17736628543753    6.10021583153273   10.48405535485700
C         1.42085312321177    7.03507440329485    9.79630164000835
C         0.58174490015375    7.90006131226276   10.48089669125053
C         0.45474336486788    7.80110942876766   11.85737101518428
C         1.18992698531688    6.86265777108712   12.55547785788723
C         7.98906376959063    4.51164111183853    9.31364785036844
C         8.59362574623404    5.03284886536981    8.01749829717896
H         7.88481272589681    5.68337138062502    7.51203378622508
H         8.83692323090254    4.20156273164366    7.36013211405216
H         9.49763415883931    5.59560790574904    8.23099391622929
C         8.94810836648576    3.60645598026596   10.07405107903567
H         8.45531269630284    3.20707334293662   10.95620463777492
H         9.82688044651020    4.16820190028835   10.37806070711716
H         9.25529062498889    2.77715567156606    9.44121277255109
C         4.71697631711594    1.89090991535189    8.34462918980025
C         3.51293512750020    0.98471324634504    8.56424523391629
C         5.00146205319162    2.11412131129262    6.86701454579885
H         5.53406504836110    1.86674998813869   12.73266255115419
H         4.06609077350540    2.32909475346133   11.83006480704259
H         4.39985024973007    3.62690155506500   13.91566059492156
H         6.94201052681734    3.70323599260156   13.71740121256461
H         6.74542979833455    4.96061004251331   12.47218953002289
H         7.15677027720625    5.95368411042784   14.72442797705245
H         5.68323717721485    5.19608242046204   15.33429022182656
H         5.59513417723603    6.43108257733859   14.06424757425527
H         2.54821152239330    4.70336068442753   13.55647969171481
H         2.73707121413755    5.34564685323674    9.92499631488454
H         1.49049595156429    7.09035190828371    8.71982886264881
H         0.01556102046902    8.64316628503703    9.93939173813759
H        -0.21126189359888    8.46459520065740   12.38835076190804
H         1.11635541901825    6.80393052634743   13.63153321255651
H         7.70009132200240    5.36351685583438    9.95353986800545
H         5.60126230812619    1.46284646539229    8.83044449814370
H         2.62635365133459    1.43869587575368    8.12838891510902
H         3.68538743708297    0.01913701160289    8.09682190138043
H         3.33956514272971    0.83455662140699    9.62730454286436
H         5.22146341719721    1.16646632505994    6.38245767622414
H         5.85227796878011    2.78017462134073    6.75585072147524
H         4.13709746176362    2.56861369385077    6.38926337287803

