123
CSD_code = QETKIJ | q = 0 | S = 0 | Stoichiometry = C50H68HgP2S2 | MND = 2
Hg        6.68576352310892   -0.78290395404895    7.58271670235825
S         8.54959466988671   -2.93358768776559    9.60883913980971
P         7.98571701743678   -3.62489926611324    6.67491038544596
C         7.93066813587809   -2.58639907272197    7.99840992317797
C         8.87481798897618   -5.07096595997473    7.38718982122052
C        10.27870266979079   -5.06805839938276    7.45302704733139
C        10.89172486184448   -5.90222313231545    8.37918014647108
C        10.17319120546723   -6.75809874477905    9.19512334606358
C         8.80859043072214   -6.86565556924767    8.96794750928853
C         8.13592748415079   -6.06187850382670    8.06196414529895
C        11.15505825562344   -4.22810258802013    6.52019582564712
C        11.19331292368837   -2.76080025975666    6.96742105596052
C        10.63104833451840   -4.33241396023853    5.08239048912146
C        12.60663593337680   -4.73306886364992    6.49002266513143
C        10.81822852090002   -7.60165272579218   10.28370685024357
C        10.14642800274682   -7.26994729066805   11.62367478159825
C        10.62525207266936   -9.08898650155266    9.95668457960735
C        12.31918456474370   -7.33539140045333   10.42809320379450
C         6.65021688718852   -6.32135146839168    7.79649220300312
C         5.76753412650357   -5.27729081092111    8.49374196268604
C         6.38505905088348   -6.32143663288952    6.28548504746022
C         6.21117096369639   -7.70161948168121    8.31197207593053
C         8.28102898848088   -1.32814961694646   10.34537308552957
C         7.51435566604540   -1.22143417720761   11.49690888780225
C         7.24826039984458    0.02823002523378   12.02942755966997
C         7.74681444370667    1.16885161409244   11.42208044237893
C         8.54095433604688    1.06104235148890   10.29140264348742
C         8.81780829145578   -0.18571433829551    9.75139640444364
H        11.95959424360026   -5.86621262563168    8.48175407628981
H         8.25488475498407   -7.58961795446311    9.53880066896137
H        11.42360103032023   -2.69753360168595    8.02939495221966
H        11.95829320599567   -2.22132484374968    6.41135789075582
H        10.23744023655425   -2.27157405631172    6.78839611731151
H        12.64724836992384   -5.80182856239310    6.29193004139904
H        13.12714514676051   -4.51904125140903    7.42036607358913
H        13.14297504143199   -4.22218435308563    5.69232312826189
H        10.62298438802530   -5.37235388351567    4.76155974520113
H         9.61989962538483   -3.93682732413321    4.99281191710122
H        11.26982406397568   -3.76383679618034    4.40898101434534
H        10.61165351787014   -7.83533772920327   12.42875954412240
H        10.24905331849460   -6.20851652827530   11.83973452361839
H         9.08726854657326   -7.51116146257788   11.60689413215106
H        11.09697915000421   -9.70522235034147   10.71948948526443
H         9.57196684283137   -9.35184399589935    9.91114776187788
H        11.07681226779914   -9.32388023777626    8.99483089291606
H        12.85618478625265   -7.60685579027993    9.52198193439119
H        12.71701899458431   -7.93582238320619   11.24410303266755
H        12.50833915225808   -6.28909117593747   10.65682661745099
H         6.05736951334367   -5.17679353745129    9.53788801658995
H         5.85365870847335   -4.30089945554167    8.01812039665743
H         4.72330940059055   -5.58283570047904    8.45002329597908
H         6.62173427340319   -5.35811981900689    5.83565208842392
H         5.33508890470391   -6.53315989025975    6.09011899004746
H         6.99034399582179   -7.08487476787999    5.80040674393205
H         5.20508261061725   -7.91140723071149    7.95300151175419
H         6.86958688100380   -8.48592189485805    7.94515420540808
H         6.18143965748338   -7.73446915626213    9.39847115473420
H         7.12337989533172   -2.11534791359338   11.95966430658971
H         6.63855552616832    0.11009311862829   12.91697209464012
H         7.52430163428792    2.14176459764307   11.83342403353097
H         8.96183538731854    1.94560963676408    9.83606455621279
H         9.49562868441004   -0.28136086720137    8.90861866997766
C         5.44082540948549    1.02052915451680    7.16688444918494
S         4.82233670750780    1.36757418781066    5.55624377086907
C         5.09081482502364   -0.23797121212118    4.81991321749925
C         5.85759674460385   -0.34488841709653    3.66845949745379
C         6.12356152970028   -1.59463101760113    3.13606204167258
C         5.62477331731280   -2.73513357664103    3.74344164436098
C         4.83054403658413   -2.62712168620955    4.87403738975618
C         4.55381455417209   -1.38028542967735    5.41392406027523
H         3.87593790917310   -1.28448088205705    6.25663306597339
H         4.40947562967994   -3.51158846320744    5.32939353041855
H         5.84714419181882   -3.70810678038839    3.33216584665483
H         6.73332475478389   -1.67665026025427    2.24857277703197
H         6.24873750898476    0.54893372242246    3.20566996651184
P         5.38544563034195    2.05923015882102    8.49022318917354
C         4.49637746110106    3.50505594858305    7.77741276938489
C         3.09251491989977    3.50190655098359    7.71111598649551
C         2.47967451135600    4.33560782286654    6.78442623839300
C         3.19835379914911    5.19126916418952    5.96838814179125
C         4.56284360101697    5.29920056248888    6.19605105099098
C         5.23532518110210    4.49587070706152    7.10256748638892
C         6.72089273250584    4.75566920983658    7.36846207352971
C         7.60397096931549    3.71166850461411    6.67163182800908
H         7.31452314228184    3.61103457693673    5.62739222843657
H         7.51778761037163    2.73531252220589    7.14731788330316
H         8.64813963203811    4.01735366458426    6.71570309363750
C         6.98561718139854    4.75601365677987    8.87954909251581
H         6.74902451599228    3.79270171525020    9.32945668518559
H         8.03548368652070    4.96798352924692    9.07518405444127
H         6.38003136841544    5.51938454039412    9.36435258108803
C         7.15980077691364    6.13595323406671    6.85289700681986
H         8.16569677799729    6.34604907593574    7.21220661425690
H         6.50104715312532    6.92015555028246    7.21932234286276
H         7.18993287255247    6.16863070583834    5.76639696095579
H         5.11662883817689    6.02306600698801    5.62515219402757
C         2.55357338269722    6.03417469243165    4.87914796139451
C         3.22598269741101    5.70194537579252    3.53961396321314
H         2.76097033298067    6.26685192486808    2.73406661627547
H         3.12365248377942    4.64038854696239    3.32403207166308
H         4.28508828703347    5.94337384120902    3.55670597275389
C         2.74610909568734    7.52170652713846    5.20551549607162
H         2.27455232945792    8.13747205515471    4.44222414420587
H         3.79932095455952    7.78480047883093    5.25133345267326
H         2.29412458538906    7.75697728717879    6.16707814512602
C         1.05273260814483    5.76752679988555    4.73428366333758
H         0.51530427076897    6.03932983190440    5.64003940754200
H         0.65510161955453    6.36746260759265    3.91780816810690
H         0.86389934743649    4.72107285322569    4.50599738908770
H         1.41184537714575    4.29936924088722    6.68149856940754
C         2.21599255955844    2.66215071893121    8.64395736783994
C         2.17793143625665    1.19472779293101    8.19712101222031
H         1.94780824920872    1.13116288681473    7.13513106556873
H         1.41291417594890    0.65533346834770    8.75321314267613
H         3.13382278146355    0.70563694838441    8.37642039362025
C         2.73965675950013    2.76686231132294   10.08185924173872
H         2.74761125019702    3.80688683918868   10.40240584272049
H         3.75080447435023    2.37133237432947   10.17179174043254
H         2.10074100609008    2.19844666106193   10.75526482325104
C         0.76438127860506    3.16706726997211    8.67362724881501
H         0.72368743972809    4.23589721007209    8.87132483635216
H         0.24407646998824    2.95269587056504    7.74324190731118
H         0.22788376062131    2.65644703965959    9.47138405293584

