83
CSD_code = QETLAD | q = 0 | S = 0 | Stoichiometry = C37H37N5O3Ru | MND = 6
Ru        6.41473647434406    3.95329960982734    0.84788299583785
O         7.94840037262379    5.28993524869705    1.31390782368603
O         7.00098089525695    4.40539870335517   -1.10890282583652
O         4.95921054468242    2.51318520420092    0.53395320533337
N         5.25686240083085    5.54026143912847    0.54448435622806
N         5.60096522313940    6.70331364676066    0.23879642424444
N         7.92409599820911    2.65502294589691    0.58563725955339
N         8.29131660994653    1.76427295481714    1.38601242293473
N         5.80682876244930    3.68968210868755    2.63762266632783
H         6.18891403720069    4.05345954931179    3.51305077222548
C         7.99694246863174    6.45578892337298    0.78351052223887
C         9.23375067409174    7.15306649880360    0.77867409533089
H        10.08430256518294    6.63998947292624    1.20290559560096
C         9.35918729918498    8.39720408952026    0.23087221013800
H        10.32616519918495    8.88071365178914    0.22423981378179
C         8.25793467597339    9.07261327126735   -0.32982422849040
C         8.44326502317698   10.43902547337751   -0.91708873222282
H         7.49944965687193   10.83376177347750   -1.28342649609319
H         9.15067229896331   10.40349916752176   -1.74505831840407
H         8.84145906346787   11.12381887013963   -0.16903976809376
C         7.04110876131139    8.44714739390789   -0.31067649539192
H         6.16251681872692    8.92446212381026   -0.71884922609343
C         6.87013146087822    7.15209268539790    0.22586893927755
C         3.87844194529401    5.26643054584370    0.67350012325441
C         3.23887192770030    5.57425439140236    1.88044543800567
C         1.91526568040219    5.19105215867670    2.04774340394902
H         1.41986527864399    5.40714901356754    2.98271938546693
C         1.23374537287239    4.54569586115925    1.03424576182403
H         0.20678445329359    4.24636146979836    1.18009524434984
C         1.86041806589628    4.30047657053437   -0.17510553227070
H         1.31585902685625    3.82317019913732   -0.97642834858227
C         3.18426184102988    4.65664885830075   -0.37948002938691
C         3.95119616628837    6.35018072923042    2.94820932900596
H         5.00799809253697    6.08671822168792    2.99768040476337
H         3.49244962999123    6.17595871342541    3.91844249010123
H         3.89125552493307    7.41616327241251    2.72457397084061
C         3.87179571317446    4.40647067344693   -1.68156622675618
H         3.17613767797890    4.01071437324771   -2.41692445245810
H         4.68367693229204    3.69034063731524   -1.54122517776991
H         4.31387879781051    5.32631586220496   -2.06276084921064
C         8.15478423652272    3.92283195318950   -1.36820529640222
C         8.91513413419180    4.27776573794370   -2.51001209405186
H         8.52189792783508    5.03321558924165   -3.17295132061097
C        10.11500659421241    3.66784658549838   -2.75138959076476
H        10.68615990949826    3.94997551016469   -3.62510683558935
C        10.64261647687414    2.67586066047918   -1.90020181147506
C        11.96418944214425    2.04895355661434   -2.22843130468379
H        12.23613334390273    1.30603814336893   -1.48348566636606
H        12.74598235859814    2.80685534548673   -2.26652217111768
H        11.92292933340643    1.56529129198729   -3.20387073403243
C         9.92942076806072    2.31308843623653   -0.78520885297420
H        10.29349743540827    1.56193257281546   -0.09940690433413
C         8.70489713661475    2.93661933669329   -0.49832558582203
C         7.53610665920918    1.40115720948449    2.48824440523625
C         7.81066659485986    1.99824927451765    3.72657690803033
C         7.08805432790711    1.58300314221784    4.83577029117889
H         7.28727319579688    2.03847658627476    5.79589176721699
C         6.11829919404395    0.60391308978860    4.72328988558905
H         5.55225386800720    0.30172936167443    5.59162691578399
C         5.88419608521742   -0.00407028033560    3.50094027420761
H         5.13634186054137   -0.77936960256064    3.42055269474650
C         6.59362306609724    0.37012932101457    2.37257830884417
C         8.87575327968939    3.05000744007656    3.82060673813882
H         8.92258168612463    3.46563242144868    4.82456309142585
H         8.69373451508805    3.85698771381533    3.10858716016238
H         9.84498593691891    2.61531804219997    3.57596149297449
C         6.38326762016554   -0.29826051185120    1.04764800376315
H         5.99445706287186    0.41408746370645    0.31943968168829
H         5.67786009610632   -1.11986804140691    1.14086613983673
H         7.33069429411660   -0.67942889312410    0.66648475640602
C         4.22985449544369    2.36462832341594    1.57905387594621
C         3.07348907153559    1.56095345876735    1.63191668811536
H         2.74995369403171    1.05652547090288    0.73487092758917
C         2.37186056399748    1.45934407778578    2.80330770932492
H         1.47233454691615    0.86110830658797    2.83311068887135
C         2.78202630050763    2.10680524434011    3.98590361770161
C         1.96458650602825    1.94121677766838    5.23069678207465
H         1.91648466677246    0.89065819753611    5.51513751358694
H         0.94481070507899    2.28590478254435    5.06335301492328
H         2.39238017702082    2.50466713484955    6.05566249227704
C         3.92515044688652    2.86712016420529    3.97393162590853
H         4.26920518559065    3.36726586728675    4.86922163030439
C         4.65546578891100    3.02001738016180    2.78430513915429

