82
CSD_code = QETPEK | q = 1 | S = 0 | Stoichiometry = C34H38BN6OPRh(1+) | MND = 4
Rh        1.19873471220840    4.30179264712107    5.79140249096535
P         0.67201657146625    4.98774617165015    3.68051818790099
O         4.01118634956969    3.80526747530757    4.94654834589116
B         0.44006691639877    5.70628413474112    8.32029668460406
H         0.19962907992337    6.39523613643947    9.24836717408915
N         0.62018336194092    7.42802776801062    6.51423125455150
H        -0.37770972432446    7.33503489370560    6.38408446201881
N         1.28663069456359    6.53012442283157    7.26601630382457
N         1.21620266332257    4.45311311174914    8.67580531347634
N         1.58342047982873    3.62103273512966    7.68211652074410
N        -0.81545850394953    5.25492328109300    7.56921446004074
N        -0.66346197415579    4.43482429477348    6.50427165719280
C        -1.07345968082339    5.24294106275660    3.19867647123007
C        -1.79067921797144    6.24042340143798    3.85352479190240
H        -1.28281659989392    6.86632612622711    4.57704890344445
C        -3.12502526763410    6.45399980373487    3.56925600857982
H        -3.67150559585398    7.23181336150141    4.08171971558896
C        -3.76074934882760    5.66698719650118    2.62141433669220
H        -4.80338941068744    5.83009432832624    2.39676188844470
C        -3.05484374935468    4.67444254780715    1.96242244473468
H        -3.54710188512175    4.06330068053344    1.22118350498289
C        -1.71835927829252    4.45611633945808    2.25179645237214
H        -1.17724574324802    3.67292445333248    1.74095550173885
C         1.25226618090997    3.77801269192777    2.44617368296717
C         1.43647964252136    2.46531059247851    2.87201142447891
H         1.24557720685674    2.21556860050746    3.91384832411047
C         1.86258253426146    1.49522608375072    1.98425685361157
H         2.00352562626710    0.47910260910286    2.32028668505782
C         2.11313159389874    1.83224359691937    0.66371091848646
H         2.45115909222440    1.07842868722755   -0.03045734122023
C         1.93475016009937    3.13778054262034    0.23475956817730
H         2.13334845891960    3.40025374086274   -0.79330408123567
C         1.50458635071894    4.11075173297544    1.11916142110764
H         1.36987655418834    5.12762638241141    0.77934210726170
C         1.42289217155885    6.53198607110298    3.04838989208976
C         2.68963173595190    6.88711987625913    3.50099635206788
H         3.17280431027336    6.27959563554962    4.25398109697346
C         3.33225079477488    8.00010370531101    2.99024225791862
H         4.32068140124115    8.25777234285782    3.33907699420256
C         2.71209804025411    8.77627378649775    2.02484636478356
H         3.21383873844213    9.64156824310476    1.62014446703765
C         1.44638494460432    8.43617124593828    1.57551615358160
H         0.96037025606539    9.03664443092377    0.82130991120465
C         0.80297957036063    7.31970796686733    2.08106589761419
H        -0.18193228166344    7.05966442466724    1.71922530307183
C         1.43704955452905    8.38768053522246    6.04870686997473
C         2.69321607220918    8.09534599005814    6.54675195811569
H         3.59314840293507    8.64869054603729    6.37825652033890
C         2.56445754085515    6.94235575856814    7.32386002618539
C         0.95942872574111    9.49168685875508    5.18785992724908
H         1.78647478904550   10.14394502679277    4.92723478631534
H         0.19968539501590   10.07819734893397    5.70331394482485
H         0.52375195592388    9.10168607047724    4.26873537913264
C         3.62080185328003    6.24752360839636    8.09567084267072
H         4.55312368267152    6.79922024767907    8.02160402823641
H         3.77938317136629    5.24024341580807    7.71024324603899
H         3.33836480483059    6.16324644040199    9.14322365448698
C         2.13556606543804    2.54107283955383    8.21903671164154
C         2.12699426247850    2.68020893140590    9.61181821563076
H         2.49812030313679    1.97951264240309   10.33025111736353
C         1.53268159536452    3.90056751037650    9.86681673652026
C         2.64371464210871    1.41456661380657    7.39553019519278
H         3.73243308063502    1.38306716295925    7.42009568027527
H         2.31635155881364    1.53523017707326    6.36154393037886
H         2.27174588881384    0.46783796364976    7.78082268462304
C         1.24962357260590    4.54455562089751   11.17375342386170
H         1.70499045696642    3.96440450464743   11.97078971158060
H         0.17630682342031    4.59418045575441   11.35136742660844
H         1.64191345337906    5.55915349761507   11.20603436581571
C        -2.11190904566001    5.25173335818476    7.95753764955617
C        -2.79675648537528    4.40439308028973    7.11061740888634
H        -3.84036538421554    4.16970228498361    7.13491038335433
C        -1.84183405968268    3.89505791163702    6.22137714840736
C        -2.62698668729899    6.04335360551822    9.10287793341063
H        -3.71198231042766    5.99810271793089    9.11686382957574
H        -2.31603503045435    7.08440845294219    9.03636285986287
H        -2.25246654424696    5.64199446361241   10.04334229360984
C        -2.02319311532214    2.86081340660087    5.17212782669516
H        -2.27962446595150    1.91040582556564    5.63938439757745
H        -1.09857527984757    2.73349824973662    4.60687790383887
H        -2.82992934771630    3.13147508652784    4.49434440592111
C         2.93298217274262    4.04119242515741    5.25723744789098

