67
CSD_code = QETQIQ | q = 1 | S = 0 | Stoichiometry = C20H40Cl2CoN4(1+) | MND = 6
Co        3.43357717131906    2.89963803075615    5.02564716467964
Cl        1.28247516801044    2.35812213916725    4.79856701599534
N         3.60729681604863    2.36199188057200    3.08167290497930
H         2.61659290259654    2.14292291194462    2.92183138860371
N         2.91427496799520    4.76583230983116    4.62641409873218
H         1.90790468269054    4.69418246098700    4.43586887275665
C         3.05159384868422    5.57848066605349    5.85002496305844
H         4.11816165393646    5.79206089128701    5.98561395750218
C         2.26929314912697    6.89389604106732    5.80109502220843
H         2.61234845061672    7.51879367487910    4.97698466474691
H         1.20815871092736    6.68048145216122    5.65122684343802
C         2.45906494456691    7.66025069033853    7.10814403967416
H         3.51197419435464    7.92357468487419    7.22406848219623
H         1.88635548777812    8.58660898018738    7.07127476417827
C         2.00797345753388    6.81874085826491    8.29427580678388
H         2.18234147148522    7.36259360003283    9.22237129241138
H         0.93647079135954    6.62395054375046    8.21869399355942
C         2.76327138707142    5.49219521679046    8.33469845515432
H         3.83032969024993    5.68097721787545    8.47488761583054
H         2.40441327974718    4.91138909840428    9.18350944988464
C         4.31820078945574    1.07019676915265    3.02705283569649
H         5.38549615929034    1.26817689418694    3.16758791444482
C         3.97121306530410    3.30632408270516    1.99876500663015
H         3.62309884138374    2.87321535639503    1.05064547274093
C         5.47369733582096    3.54524772135244    1.88216660741316
H         5.97343788080959    2.69195881206060    1.43307830449922
H         5.92436308796492    3.73432654070493    2.84949757461136
H         5.65387900186123    4.40531494434587    1.24383265185198
C         3.19068116401838    4.61346643177919    2.17516330095419
H         3.40713868996417    5.24888933223335    1.31636215043652
H         2.11826664262500    4.39984367960999    2.16081311603362
C         3.52936789945885    5.38390127888719    3.44584015753982
H         4.60852477703127    5.42741781439255    3.59723879178546
H         3.15768770996202    6.40615364308838    3.32982963105830
Cl        5.58561596794529    3.43772946514847    5.25167187463502
N         3.26032338116132    3.43691909708349    6.96967518185304
H         4.25106130276660    3.65594526826569    7.12939095687796
N         3.95346872781071    1.03345922713411    5.42470546856384
H         4.95984434177564    1.10528737673369    5.61521582015073
C         3.81618421480474    0.22052922251694    4.20123171890434
H         2.74962036086348    0.00689583952271    4.06566045210082
C         4.59843662159783   -1.09494138379624    4.25011753094676
H         4.25536068008774   -1.71982911010057    5.07422896602404
H         5.65957983646648   -0.88158012136437    4.39999037519266
C         4.40866753530759   -1.86136500798862    2.94309356197105
H         3.35575976069304   -2.12469666232017    2.82716414708432
H         4.98137201463950   -2.78772811900491    2.97996680826444
C         4.85976159528835   -1.01988668466823    1.75694080438381
H         4.68537971475104   -1.56376143031241    0.82885950448199
H         5.93126747998043   -0.82510874840627    1.83250407365130
C         4.10446530858166    0.30666442381656    1.71652673379120
H         3.03741037752008    0.11786834684919    1.57633796626843
H         4.46330869600614    0.88745701786006    0.86770138792140
C         2.54949534451855    4.72873729954458    7.02414723456368
H         1.48220248711346    4.53076369248609    6.88359150051635
C         2.89648093850005    2.49254096040774    8.05254190298144
H         3.24463491432142    2.92564540187449    9.00064261698335
C         1.39401296604978    2.25356370367267    8.16919225538051
H         0.89426612629171    3.10686213246501    8.61824869984041
H         0.94331013635139    2.06443185115767    7.20189950255108
H         1.21388616604269    1.39350617677024    8.80755002126354
C         3.67709234124063    1.18546075486527    7.87604929904121
H         3.46065483372688    0.54995055876500    8.73479305060824
H         4.74949924160795    1.39911272410460    7.89041613039442
C         3.33849157499627    0.41517395018932    6.60526882345734
H         2.25933035943239    0.37155083864190    6.45390701534606
H         3.71022938070981   -0.60707471203256    6.72122430193558

