71
CSD_code = QETQOW | q = 1 | S = 0 | Stoichiometry = C20H40CoN10(1+) | MND = 6
Co        4.94300471331241   14.99868431978280    1.81811033825190
N         6.74140927693964   14.86320606637865    2.66813553310748
H         6.50516663402664   14.80721576365277    3.66487282509435
N         5.31452531648835   17.00287790810559    1.75162314071465
H         5.68343787997381   17.11804274411356    0.80308893537534
N         3.14450733706707   15.13355925213712    0.96772203333600
H         3.38093337462161   15.18655302884387   -0.02915560972387
N         4.57178985978990   12.99457684399400    1.88536889166135
H         4.20568146595892   12.88017299647622    2.83510628710308
N         5.61064514550246   14.87737498906922    0.05779622001618
N         6.58999038261089   15.28601935403990   -0.44208882662476
N         7.50493501037140   15.65233947754707   -1.00383304052240
N         4.27633640986233   15.11879563201461    3.57902821751795
N         3.29119674675769   14.72144008353778    4.07675357651510
N         2.37067125557789   14.36541284467538    4.63608529663098
C         7.47066287138330   16.13673123949573    2.49976249522077
H         7.89800575739267   16.15798644432891    1.49040483154366
C         8.60168417275940   16.32957861924109    3.51429867603676
H         8.19203188721072   16.30731050028641    4.52720856326260
H         9.34028927429084   15.53328397689623    3.42535218908869
C         9.29337530414625   17.66873329259587    3.26798761892415
H        10.08874266391515   17.80614259842346    3.99999498223674
H         9.74947955323451   17.66264387495738    2.27648476982871
C         8.29533082498528   18.81480585454996    3.36557904084922
H         8.79398045475449   19.75919832638153    3.14950465655032
H         7.89989169002818   18.87154802619339    4.38166787978224
C         7.14345177721893   18.61380124217612    2.38291523684624
H         6.44190808425637   19.44042941143365    2.49115350364737
H         7.52906183723286   18.62256392493567    1.36028114014059
C         6.45302501736257   17.27459264749804    2.65558320055012
H         6.06966869912330   17.25554937304225    3.67953966426062
C         4.21916928459194   18.00168689210564    1.83990029777849
H         4.60574439959426   18.95561204310051    1.45481293929405
C         3.73188209675701   18.23520242416086    3.26687056287699
H         4.42604750584228   18.86085567732623    3.82034232532280
H         3.61266385291804   17.30006024410890    3.80193080957648
H         2.77463228753276   18.74780300751992    3.24406673904906
C         3.07703268402106   17.60449783677127    0.89583460687607
H         2.35694598078818   18.42315487110389    0.88844782619746
H         3.46607558160094   17.50649348553427   -0.12183186460817
C         2.33985680589250   16.32338428120777    1.27257045340199
H         2.08285099399362   16.32246787480189    2.33272404477701
H         1.40658980087400   16.29470230868803    0.70157154377461
C         2.41448195076992   13.86091132046472    1.13971649275184
H         1.98855636528156   13.84200336879344    2.14969297366377
C         1.28152609805675   13.66652839168895    0.12761729712767
H         1.68925937918025   13.68595250389703   -0.88611962987365
H         0.54365130931447   14.46354519634897    0.21604174366445
C         0.58928462674321   12.32853592418718    0.37870308492832
H         0.13532493815312   12.33749352556992    1.37116983489784
H        -0.20777577253320   12.18993856587144   -0.35123186077101
C         1.58618281203216   11.18140481452431    0.28183923053655
H         1.08723095587308   10.23796318182811    0.50132694175786
H         1.97940254707564   11.12180946546694   -0.73493743261965
C         2.74031220431885   11.38388191579596    1.26154650850398
H         3.44112991899279   10.55658785329293    1.15362548736494
H         2.35688608369292   11.37761395364615    2.28502246435845
C         3.43105890331104   12.72203996611592    0.98450233041062
H         3.81225468657682   12.73854965258344   -0.04029307719411
C         5.66709978436511   11.99599009727372    1.79417877741277
H         5.28146896720626   11.04170861397751    2.17930965375311
C         6.15134545304868   11.76396489900413    0.36590956880100
H         5.45688719540882   11.13746876639850   -0.18624240329496
H         7.10952725453377   11.25301206301990    0.38598016069921
H         6.26752597549624   12.69988252732844   -0.16858571072758
C         6.81128587994654   12.39243426181110    2.73606442591609
H         6.42477080578862   12.48846682045146    3.75487307506413
H         7.53194929153337   11.57426081972425    2.74025110322208
C         7.54653426156552   13.67469624385468    2.35959175980560
H         8.48115354367258   13.70343236289581    2.92836620642071
H         7.80087262803203   13.67743132095241    1.29880844188052

