47
CSD_code = QETSEO | q = 0 | S = 0 | Stoichiometry = C19H20MnN3O3S | MND = 6
Mn        3.39420480672293    3.84657015939688    1.97140735068238
S         3.85667896728526    6.21048467834247   -1.95226931662626
C         3.72424113716160    5.34848681864589   -0.63479768453248
N         3.65075753428767    4.63152293255383    0.29911724490954
O         2.13236735853159    5.11539087493396    2.37292005426233
C         0.89241426634519    4.93938814615677    2.66051630005507
C         0.22236929829717    5.91963745418533    3.43622332451621
C        -1.09526459500082    5.78820181346678    3.77916556691486
C        -1.82016736012084    4.67163665185457    3.35551697789596
C        -1.21810648320550    3.72578927511634    2.56526826832585
C         0.13408363866125    3.81650558906861    2.18594203710365
C         0.73693461644658    2.82643309299560    1.32957062118817
C        -0.17504013292697    2.00248380292319    0.45484536824573
N         2.03492087434808    2.66365777920936    1.28274658902603
C         2.58441133340865    1.58518897783239    0.48099990725228
C         3.91947274988594    1.16696308738067    1.10289037158042
N         4.63307922013441    2.36237617020498    1.51517598575947
C         5.92573390981205    2.31284965704209    1.62920125782251
C         6.68348112453840    1.02213446216271    1.45481376204358
C         6.68101150974781    3.50052226097433    1.97903501589904
C         8.04768097840950    3.62160841644714    1.70062387112379
C         8.76214280089181    4.73884446508144    2.07085441211380
C         8.13120120608662    5.76870531439311    2.76093498684059
C         6.79082282722965    5.68449829677414    3.05278553669518
C         6.02677512744262    4.57743374809989    2.64200743185060
O         4.75928849087945    4.52824668313059    2.93147692319736
O         2.88172687214583    2.96487748639677    4.09751983551988
H         0.80600543062136    6.76882638974666    3.75934846314706
H        -1.57480756476090    6.54366769258551    4.38396455091054
H        -2.85269492533420    4.55592831840203    3.64728831317178
H        -1.79266602633754    2.86116201381728    2.26957105409221
H         6.27721236040926    6.48522900464299    3.56352507546022
H         8.69228633206313    6.64182772095755    3.05933535890447
H         9.80935687941745    4.81642222829988    1.82192169915770
H         8.54974241981519    2.84546987832772    1.14335261667688
H         3.49542727407042    3.45073386565177    4.66321901325614
H         2.00334832154938    3.31800292999314    4.28341325209037
H         0.26381908891366    1.88924038575665   -0.53442715452236
H        -1.13485816176118    2.49354916127163    0.33622017745680
H        -0.33994329771954    1.01062964859127    0.87799880554117
H         6.15047675138900    0.20083637779004    1.93048947533879
H         7.66821274527184    1.09090879328791    1.90461607280740
H         6.80010092258727    0.78847606458252    0.39626515596975
H         2.76196490378027    1.95645199609125   -0.53713726620558
H         1.92188684212870    0.71497167193335    0.44250693427021
H         4.48865950262697    0.58548696101368    0.37068732637563
H         3.72674812382455    0.54254080248792    1.98584907643560

