46
CSD_code = QETVAM | q = 0 | S = 0 | Stoichiometry = C12H24N6NiS3 | MND = 5
Ni        4.63353248076297    1.56341602560968    3.05496609622975
N         3.74522963963857    0.47228715548486    1.85558446378625
N         4.51149202089267   -1.44734784970652    0.68462514149249
N         2.33270317802164   -0.64110959654837    0.42209177848119
N         4.68651637018496    3.33548877470960    1.73383930175608
N         5.75527020291814    2.63214070506856    4.33101819300563
N         3.42085494147981    0.98980412749514    4.81029557484993
S         6.12360516983408   -0.13320076905732    2.36025481328958
S         2.92762445367495   -2.75365351317475   -0.97283238580220
S         1.29247528783346    1.45120237803009    1.61629141555411
C         4.67801164839573   -0.45608106538315    1.51928817107818
C         3.31556354361527   -1.56731643087002    0.10441854933515
C         2.52868252874454    0.39320236613840    1.30054791667847
C         5.87450006435808    4.01385579842469    2.28235324114607
C         5.83502227402075    4.01258952106638    3.81026413952168
C         5.09330808833215    2.59747434990178    5.65178618383973
C         4.40458424602659    1.25164918212094    5.87626703113275
C         3.51817963637097    4.21715032767791    1.77608036909821
C         4.94245443239991    2.97947280480515    0.33398727942034
H         5.22364197781212    3.86495301814892   -0.25029552641198
H         4.04206036944754    2.55053966725114   -0.10208694362326
H         5.74434179134744    2.24182465511786    0.27530454176593
C         2.19078124405332    1.75064370788056    5.03836846394155
C         3.08300628737229   -0.43768262684899    4.81149503703807
C         7.11734737877740    2.10034479696113    4.47186009286210
H         1.42495502076995   -0.73509866376152   -0.01913110214507
H         6.76144624303214    3.47124938466738    1.94357396701937
H         5.93915852783489    5.04900978251990    1.91407066629889
H         6.72150403518898    4.52404023828388    4.20675161730731
H         4.95469151249290    4.56922690389829    4.13763477848476
H         4.34119490372067    3.38756655102462    5.69612844510666
H         5.82022709667672    2.78238265491521    6.45284760070042
H         5.15300737745933    0.45456895587145    5.84956458254759
H         3.92183093005415    1.24225458818919    6.86540145296761
H         3.31838940937037    4.54660438185110    2.79290740607078
H         2.64299521450993    3.66913372715341    1.43088523604528
H         3.66931309368174    5.09881654045488    1.14004489763328
H         2.71944808500085   -0.75320054507979    5.79778811938826
H         3.95950042842359   -1.03086419828056    4.54605150316286
H         2.29995548575494   -0.62573429678201    4.07914592013334
H         2.39852395448141    2.81664967737708    5.09120479644842
H         1.70322642082633    1.43705292834625    5.97037136923358
H         1.51066251008217    1.58972289075011    4.20348968755584
H         7.08805300768289    1.07544077220647    4.83335119208074
H         7.69624881745286    2.71324719695175    5.17451515167104
H         7.62187866918790    2.08988301913773    3.50892977282288

