107
CSD_code = QETWAQ | q = 0 | S = 0 | Stoichiometry = C58H44Br2P2Pd | MND = 4
Pd        2.33209605244916    5.90209178978648    3.23710907814551
Br        0.10631595240588    6.90149833943999    3.48172781208759
Br        8.29410429929424    3.07512240531245    2.29160795039524
P         2.40161953177585    6.40964556537972    1.04122569748856
P         2.42982205666181    5.20621365530060    5.37905990138075
C         4.11858673352379    5.10652236518194    3.00698299959248
C         5.26903104614936    5.80803160980753    3.20208978770224
C         5.24258825110505    7.25585362582680    3.61985664394868
C         6.31203306504159    7.54426865869486    4.62746026197066
C         6.10519485243322    8.37531034493179    5.71661286300859
C         7.12788294498536    8.60626531073353    6.61997054693487
C         8.35796537095244    7.99642730481814    6.44213117758542
C         8.56747742524957    7.16234774808696    5.35730152827163
C         7.55207312621871    6.94019507488158    4.44161858509478
C         7.74308457120715    6.06752262640152    3.23481229948267
C         6.53835359778589    5.20374141514241    3.00249351820582
C         6.59032147998632    3.89926373558984    2.60034917661694
C         5.42758357712005    3.11724021310540    2.36833952460774
C         5.44189175828262    1.79390359596441    1.94453304354962
C         4.26719512405233    1.07792344370351    1.72075616450812
C         4.27951369248117   -0.27035355045230    1.28404271417314
C         3.11572885287291   -0.94412642094403    1.06997321178878
C         1.87130036659583   -0.31237624622105    1.27933905351962
C         1.81685939439249    0.98107413880489    1.69968144581700
C         3.00635378224906    1.71464076593737    1.93317062395452
C         2.98969093157708    3.03740509040862    2.36193354026291
C         4.16151393376919    3.75765486387084    2.58377746777461
C         4.02565274597339    6.27971800492563    0.22641309989006
C         4.87878105742057    7.37535450255562    0.15012206384431
C         6.17807813116969    7.21582657030819   -0.29871924011530
C         6.63842483419527    5.96337946803645   -0.66846237989422
C         5.78667617251088    4.87148745518636   -0.61438466392269
C         4.48808242900585    5.02646725409017   -0.16999516746372
C         1.33773234827933    5.40582070207168   -0.03425390202011
C         1.55124254777565    5.32678333922446   -1.40842119634378
C         0.71918526179391    4.54793413245976   -2.19044518208169
C        -0.32377278190537    3.84133922049772   -1.61186996101007
C        -0.53757797343547    3.91448754923282   -0.24595702322313
C         0.29040506852794    4.69397723018832    0.54082816424648
C         1.92752741234151    8.13697230779925    0.73572954721758
C         1.32555686074541    8.58268932253485   -0.43312852397598
C         1.01147106801497    9.92336783050601   -0.57145328432458
C         1.29618575171397   10.81822257339639    0.44647421503177
C         1.89036108314185   10.37524072604935    1.61751773333585
C         2.20005568812083    9.03749285774222    1.76276112536583
C         4.05297375557767    4.69850843367876    6.02794536769051
C         4.58200798331356    3.47029255352241    5.63462161017185
C         5.87507581617273    3.12824687737686    5.97645267496145
C         6.65107419203734    4.00263128517590    6.72152173018798
C         6.12189916696932    5.21102736999950    7.13859303392837
C         4.83114612932708    5.56411181121584    6.78661954804879
C         1.41004985225939    3.73190808023077    5.68215095556060
C         0.36409218013474    3.46224539592621    4.80505218970247
C        -0.42512144090062    2.34079856654719    4.98206572006839
C        -0.17461311887434    1.48014301935449    6.03720999911529
C         0.86425776560243    1.74441886091489    6.91579732008544
C         1.65772467288100    2.86305132888138    6.74192874052887
C         1.87916207430470    6.44343885446386    6.59231686348032
C         1.98983761961429    7.78224978482100    6.22907232818240
C         1.62221473955531    8.77788586687107    7.11330725949720
C         1.13612913400834    8.43894228052697    8.36537860571335
C         1.01531350705545    7.10714115330263    8.72759406765603
C         1.38559761833551    6.10712536432665    7.84668016656766
H         5.41422394631355    7.87888176430138    2.73043966895133
H         4.24881436268491    7.50590869624504    4.03175994395251
H         5.14197319655901    8.84637644733961    5.85870927259644
H         6.96310580244385    9.25826818499076    7.46541108728710
H         9.15559931536227    8.16983290315191    7.14959714334751
H         9.52757913865094    6.68587779774503    5.21841606629591
H         7.87242364846685    6.70950296083191    2.35217916336318
H         8.64832029775563    5.46954735315215    3.34322186737256
H         6.38510590047186    1.29327850306908    1.77701271868443
H         5.23440218529502   -0.75076548596167    1.12444956338584
H         3.13297020604319   -1.97152525276923    0.73674480196832
H         0.96294537150463   -0.86933902819982    1.10152427998565
H         0.86900189023115    1.47461531425477    1.86305546447457
H         2.02197995813642    3.52123964813091    2.52847848973927
H         4.52013422530948    8.35566770095697    0.43750629642521
H         6.83511068110205    8.07237265415197   -0.35368781419462
H         7.65807902552172    5.83669402684719   -1.00059826007036
H         6.13877651061806    3.89431659326004   -0.91085731266441
H         3.82493610173136    4.17229133599404   -0.12732902588831
H         2.37544229636104    5.86422915796647   -1.85870837038357
H         0.88575026457892    4.48992371958579   -3.25636925666411
H        -0.96846790962565    3.23305840317968   -2.22883064726557
H        -1.35139630720254    3.36643081577535    0.20535223919088
H         0.11312880404085    4.76706427376738    1.60919860350093
H         1.08822786652565    7.88431231934933   -1.22270382061586
H         0.53538368947331   10.26958583016684   -1.47706392570437
H         1.04353449105747   11.86186439583988    0.33225597534632
H         2.09849138115741   11.07078706756784    2.41711496510712
H         2.63995096374042    8.66792321022421    2.68991874797474
H         3.97377931182655    2.78407597288793    5.05981139061424
H         6.28053773898359    2.17913246067658    5.65713249479135
H         7.66601832091890    3.73908133103630    6.97880864265074
H         6.71928494722737    5.89057094968014    7.72761267222342
H         4.42618345810796    6.51506745232585    7.10442765011144
H         0.15621476152542    4.14770631504162    3.98865987632051
H        -1.23632490063759    2.13865727610854    4.29827401368788
H        -0.78694578881220    0.60154638563393    6.17632823091025
H         1.05965217917693    1.07286212166291    7.73926390572557
H         2.48009647944369    3.05486842111181    7.41827030618572
H         2.34216076513985    8.03879312472433    5.23130168824890
H         1.70218131741431    9.81559785282278    6.82483458356612
H         0.84096066874284    9.21401751118514    9.05697830733301
H         0.62554433501858    6.84559566643879    9.70048920480939
H         1.27955797831007    5.06897044440937    8.12688888367105

