31
CSD_code = QETXOD | q = 0 | S = 0 | Stoichiometry = C12H10Cl2F4N2Pd | MND = 4
Pd        4.99692377820170    2.27874962034868   12.47107685380444
Cl        6.09811824582277    0.27211177442179   12.23426764843869
N         3.54184587729569    1.47398647078555   11.25992230634174
H         2.60307779384557    1.39064280003249   11.65518807991692
H         3.96018726899698    0.54809051396823   11.09176150463063
C         3.56946452656288    2.30816760016767   10.10741807968845
C         2.43029782819517    2.97808891746340    9.68157650592981
H         1.48931601280653    2.88086300165060   10.20134095176353
C         2.50485784459693    3.82245311884774    8.58631711781118
C         3.70552413974697    3.99103837546056    7.90902927823457
C         4.84240905891510    3.31940116546753    8.33144012086668
H         5.76547679701901    3.47072970737786    7.79550873977492
C         4.77925968366665    2.48133062783707    9.42735222347910
H         5.66822837542872    1.95191952892614    9.77028682845045
F         1.40144251560149    4.46303390683044    8.18177199560480
F         3.77409462829596    4.80283412244885    6.84411356621430
Cl        3.89636568384136    4.28604845715153   12.70661436522238
N         6.45273064862320    3.08386727524319   13.68100509827842
H         7.39143089066367    3.16709188911918   13.28551981190528
H         6.03445357067062    4.00979466110881   13.84914128948560
C         6.42521126605162    2.24978597827389   14.83357982870738
C         7.56445252167618    1.58005387191469   15.25949172849491
H         8.50543628419848    1.67737088437652   14.73974556202824
C         7.48999001746754    0.73578024566575   16.35482659377319
C         6.28932139454553    0.56708132341754   17.03209879704141
C         5.15234762510842    1.23851457248583   16.60959140237538
H         4.22929089818523    1.08710526966608   17.14552193367460
C         5.21540333220833    2.07648697076226   15.51359287590301
H         4.32637933629126    2.60575158909636   15.17060681464648
F         8.59350319752216    0.09543674683160   16.75948832263925
F         6.22085895804815   -0.24461098702357   18.09710377475970

