31
CSD_code = QETXIX | q = 0 | S = 0 | Stoichiometry = C12H10Cl2F4N2Pd | MND = 4
Pd        2.24861564790340   -0.00094591843366   12.81022815263345
Cl        4.33652012810814   -0.95685130961080   12.70634325448246
F         1.35558383973002   -1.06821836153939    7.98899750167371
F         0.05905256244143    3.41778163443757    8.40836236951362
N         3.03044282616394    1.50026823284436   11.63819622437296
H         3.04378652597221    2.44393190192424   12.03049294998159
H         3.98325758101973    1.12458022504480   11.52683706732684
C         2.25859024784837    1.41874388521630   10.44859230910950
C         2.20339304663539    0.19734074343745    9.77021186915151
H         2.76612678865100   -0.66506611667272   10.12585234581863
C         1.41220744026688    0.10163706096650    8.64119170070833
C         0.67540961738655    1.17027509457483    8.15572804023530
H         0.05881398002526    1.07259211061422    7.27833153845459
C         0.75346543582941    2.36141353958705    8.85174819341991
C         1.53643284874150    2.51053117620820    9.98523453490137
H         1.54750181751773    3.45637789405108   10.50440151068553
Cl        0.16147657154300    0.95689071276368   12.91484684221740
F         3.14110062220900    1.06826193986411   17.63249229856923
F         4.43994655137092   -3.41698139631850   17.21205744373897
N         1.46611764357409   -1.50068546026068   13.98373024540154
H         1.45253317473673   -2.44445015097073   13.59173804751523
H         0.51337768879849   -1.12488199068238   14.09534232739007
C         2.23845166363940   -1.41892824989903   15.17299850451751
C         2.29331395942838   -0.19754463908291   15.85145687951536
H         1.73000770968749    0.66463278217492   15.49610524798758
C         3.08492773689867   -0.10152877655969   16.98014631783403
C         3.82242993222554   -1.16985425445166   17.46523772183754
H         4.43927389510133   -1.07194734203006   18.34243460552439
C         3.74477522141941   -2.36094463266719   16.76907401119901
C         2.96145768913738   -2.51034734963755   15.63587694570988
H         2.95080960597493   -3.45608298491514   15.11651299852362

