31
CSD_code = QETXET | q = 0 | S = 0 | Stoichiometry = C12H10Cl2F4N2Pd | MND = 4
Pd       -0.00036668709508   -0.00090104461365    0.00087061497454
Cl       -0.75198862569902    1.39777674293815   -1.67070103309679
F         1.87657407380880    1.79459113723296    0.67986279715988
F         6.03291572797035   -1.66694175104242    0.29340292421416
N         1.70397050299607   -0.18829819902956   -1.16337267287401
H         1.48370718988443    0.65691249648156   -1.71634077810728
H         1.72270693823333   -1.01463655266952   -1.76487262138820
C         2.86626212389953   -0.06892815326250   -0.36874061337010
C         2.95043064805184    0.96263617332025    0.57128960467733
C         4.03770783332901    1.12533426329527    1.40164329620495
H         4.04436605151290    1.92823098950806    2.12018214217726
C         5.09483201853267    0.23442615985981    1.30775822821242
H         5.95977509579308    0.32301224278689    1.94372436909616
C         5.01506709542248   -0.79626828221511    0.38916354145601
C         3.92587052810800   -0.96220648561770   -0.45063730799602
H         3.90216714172570   -1.79287098915129   -1.13904174167944
Cl        0.75137327239475   -1.40013550816664    1.67193348399053
F        -1.87850429253155   -1.79732444680630   -0.67605730157108
F        -6.02989992891589    1.67106723356181   -0.29861554302222
N        -1.70503366453101    0.18711403069727    1.16501235874122
H        -1.48605957946435   -0.65802849409109    1.71839339858721
H        -1.72315180267938    1.01381201635833    1.76599301151755
C        -2.86674734887956    0.06863197933453    0.36941304907989
C        -2.95143474667559   -0.96391284840678   -0.56950337521014
C        -4.03807947781423   -1.12606175581016   -1.40075615466623
H        -4.04520900547086   -1.92983937239985   -2.11830207402876
C        -5.09389342184866   -0.23335384694441   -1.30913571233525
H        -5.95829109951057   -0.32141190492742   -1.94591268107257
C        -5.01344481941408    0.79850052386940   -0.39190408220084
C        -3.92497779283367    0.96374003229911    0.44899364305475
H        -3.90064394829911    1.79533361360988    1.13625722947576

