43
CSD_code = QETYIX | q = 0 | S = 0 | Stoichiometry = C15H23Cl2O2Ta | MND = 11
Ta        3.05634562015122    2.77620472923081    2.80108723185593
Cl        3.96562901034882    4.23998521759904    1.28331189879280
Cl        4.48366936361378    3.23690151495591    4.43004137275431
O         1.59234455109777    2.39579386465348    1.77346167256851
O        -0.63970988101850    2.10044928712512    1.20127569737530
C         3.81173803111959    0.52330637448119    2.43022983933874
C         5.25945253100190    0.61088236378514    2.72327560735235
C         5.48599408748917    0.08945348507977    3.95544985001832
C         4.22609626588375   -0.39199026062481    4.50389790636460
C         3.23472044944886   -0.17269090090459    3.59783021291363
C         3.40535124666128    0.07416280922049    1.04388603747174
C         6.25476392263480    1.18320355360008    1.76218334291036
C         6.77281577696028    0.01599846508779    4.70310320603782
C         4.12525066053087   -1.02273415091575    5.84983180375343
C         1.81112016416934   -0.63472413283444    3.65596881659691
C         0.32071185957442    2.36153356303679    2.13666961123555
C         0.05407959909204    2.60591502456139    3.43370829969430
C         1.27555039261865    2.82911738093576    4.26772444623842
C        -0.19955835797963    2.12558900103347   -0.14247639924972
C        -1.32182160265406    2.66961946064819    4.01816418671525
H         2.32163710368366    0.02594269551445    0.95479051674260
H         3.79304831282892    0.74819026762539    0.27990421749779
H         3.80669090138180   -0.92292032369373    0.85478475657548
H         5.79416057075647    1.93494852886491    1.12160930193912
H         7.08061454296151    1.65027611810195    2.29415637873788
H         6.66484684842580    0.39703269706223    1.12502582915593
H         6.74259604584912    0.69096853495142    5.55913185337991
H         6.94197438559370   -0.99259690047830    5.07726671798100
H         7.60923927353929    0.29794571866474    4.07040190403402
H         3.09232636985798   -1.23771273761865    6.10850032975953
H         4.54700659988307   -0.36110267544531    6.60551223745563
H         4.68747407497184   -1.95640200034077    5.87438186259646
H         1.46369797515475   -0.70496469882088    4.68426232284157
H         1.15241700834107    0.04426122960070    3.11674762646071
H         1.72109757236881   -1.62590999233573    3.20702288753490
H         1.42874814274195    1.98637388854987    4.95139927858527
H         1.14752938421726    3.71909667981159    4.89082175953067
H         0.49754478388577    1.30652769263751   -0.34545622455190
H         0.29147155921961    3.07395317910044   -0.37867615088392
H        -1.09492865900711    2.00700711772044   -0.74878162011879
H        -1.44682398007395    1.90126695773328    4.78119494107037
H        -2.06332791140957    2.51952256731466    3.23970988690587
H        -1.48738459758257    3.63761880590913    4.49016474728902

