31
CSD_code = QETYEU | q = 0 | S = 0 | Stoichiometry = C12H8Cl2F6N2Pd | MND = 4
Pd       -0.28496346256026    4.94699443072939    3.31642951673185
Cl       -1.83499143974167    6.64218112253791    3.18413613838897
Cl        1.26370661434026    3.25226967334182    3.46630598229004
F         0.65296950120149    5.96628313701874    0.96582010590451
F         5.23538547819295    5.34864892558898    0.00964461166808
F         3.82462136364821    6.42135127690131    4.36381195168403
F        -0.85256051930914    3.86699505208994    0.87562087973915
F        -5.23161222414293    4.46017532726174   -0.78768413083562
F        -4.50983403966965    3.49575531827025    3.75641223167945
N         1.13358471625609    6.45297364054975    3.54133383653897
H         0.50598897187350    7.21877228440284    3.25008008412058
H         1.43771923164884    6.57854071555805    4.51078525342888
N        -1.72449739775233    3.44454622251085    3.35785168122967
H        -1.06166143748933    2.67264472819595    3.18497832149407
H        -2.17421915581851    3.34224377183671    4.27183781209690
C         2.21515235579799    6.22068930924655    2.66758680251734
C         1.95775532845296    5.95401125362556    1.32164429691323
C         2.94464192962695    5.66255233674590    0.40708752935286
H         2.70921858606848    5.44665522110732   -0.62128365641477
C         4.25141704253943    5.62771593490403    0.87233265436570
C         4.57316217850407    5.87457906021013    2.19551682227175
H         5.59368613013449    5.83163822062347    2.53827578517257
C         3.54671756042684    6.16917306080037    3.07353679358843
C        -2.65837844251415    3.65450803614670    2.32296737104560
C        -2.19647417130565    3.88775815355431    1.02636560801485
C        -3.03019158628719    4.15632128730664   -0.03573901948629
H        -2.63891108013452    4.34671606999127   -1.02074047422109
C        -4.39275004689581    4.20259546510460    0.22240251659864
C        -4.91467661695132    3.98855382314433    1.48614524844931
H        -5.97553953236291    4.03998076377089    1.66703424164808
C        -4.03626583577448    3.71587637692352    2.51830320402739

