89
CSD_code = QEVWOE | q = 0 | S = 0 | Stoichiometry = C34H48Cl2N2O2Zr | MND = 6
Zr       17.52502588339526   -0.03001051403847    5.38800054473922
Cl       15.95584587736505   -1.49492476616283    4.38857625173598
O        18.53666577177700    0.03954275723090    3.74110825290751
N        16.45586217238783    1.63497209092541    4.42377045557424
C        18.04495265107732    0.00366882924835    2.53640488359684
C        18.57385115278755   -0.86792523013897    1.53604401302997
C        18.09839529161453   -0.75417559449837    0.24749445881692
C        17.10714995994206    0.16122996676569   -0.11326603229714
C        16.53617483933441    0.95046160287705    0.84536112745388
C        16.97056828472459    0.87853783788128    2.18188238089937
C        16.25913116076884    1.64834411399585    3.15107557553863
C        15.54709764930699    2.36850769369133    5.29603984215413
C        14.19207571592805    1.64881765630371    5.34842389806814
C        13.30733473498650    2.29928947687162    6.40615558199012
C        13.11495353203320    3.78290901800548    6.09762184429029
C        14.46073180602635    4.49779759267492    5.99510236171744
C        15.33777543573998    3.84265231748698    4.93010429900788
C        19.59270848231210   -1.93130254254668    1.92947629214169
C        20.85678596329624   -1.27251233181078    2.49778191409229
C        20.01055100768985   -2.80849821931602    0.74380156577336
C        18.95249347587202   -2.84261389384142    2.98887112396628
H        18.48956456160246   -1.39222302149831   -0.52747253658297
H        16.77953499885955    0.21642673153537   -1.13991818941268
H        15.73319680651172    1.62878256268624    0.59291113526663
H        15.46485995992991    2.27425466094332    2.72796241460604
H        15.99750801549027    2.33131965753074    6.30092939814679
H        13.70953891452045    1.71206935106224    4.36936177778188
H        14.36170557540458    0.58959792264890    5.57095386723411
H        12.33899110285114    1.79751000154668    6.43726411560980
H        13.77603476027696    2.18492180253949    7.38609190545128
H        12.57768692403356    3.88849674566268    5.15229844345477
H        12.51010113990410    4.24892438759809    6.87741749135030
H        14.30409962036582    5.54963187979325    5.74730913785867
H        14.96956877272692    4.45291094879133    6.96083282760990
H        14.84491921380307    3.93399942581761    3.96058287755087
H        16.30566560276484    4.34698954234322    4.86704548456863
H        20.62218218103924   -0.72005183900798    3.40303433123119
H        21.29162588326945   -0.59089160394093    1.76826241072983
H        21.59198033959018   -2.03522118937887    2.74411065654404
H        20.49069168579333   -2.22025580825806   -0.03548984993027
H        20.72561790163059   -3.55214630930076    1.08885478144298
H        19.15726959590148   -3.33588053931813    0.32434056567678
H        19.62304614274893   -3.66667113162647    3.22376926928463
H        18.01290605002404   -3.25017308783759    2.61850031771271
H        18.75057898124542   -2.29760897140291    3.91417039848479
Cl       19.09516470834301   -1.49367142760734    6.38781202815131
O        16.51322565008233    0.03914855110735    7.03493497106946
N        18.59353802183465    1.63545762637790    6.35183489286617
C        17.00515993322797    0.00352587024905    8.23953752949900
C        16.47683886660270   -0.86830091894869    9.24004078647163
C        16.95206792836309   -0.75386745537348   10.52860958047802
C        17.94302842810828    0.16193831005676   10.88915625355252
C        18.51398463664581    0.95085395830768    9.93027549122962
C        18.07946279109312    0.87863250370760    8.59380283827506
C        18.79086102792041    1.64825655347602    7.62446181737775
C        19.50247826270916    2.36879692492221    5.47954299965084
C        20.85764297696975    1.64934134263963    5.42771096840906
C        21.74258221722585    2.29972111856111    4.37010085411569
C        21.93468046328138    3.78339269917262    4.67854100700543
C        20.58877834890574    4.49813750722843    4.78047061109902
C        19.71136458622873    3.84306810502737    5.84521757456770
C        15.45889795766118   -1.93265602975424    8.84682165934793
C        14.19438941606607   -1.27539802387271    8.27770301274729
C        15.04152157358646   -2.80967611450486   10.03280571408910
C        16.10017499661157   -2.84391684088617    7.78804041763916
H        16.56090863377793   -1.39162452998124   11.30381825400991
H        18.27059240098322    0.21750508629604   11.91580664282156
H        19.31701230574538    1.62921124677463   10.18246298693156
H        19.58553688722358    2.27378075465156    8.04739094922978
H        19.05232828716951    2.33127370411613    4.47454897996289
H        21.33993973420204    1.71290411945623    6.40686511037207
H        20.68828324916934    0.59002688293787    5.20542816963758
H        22.71098362327539    1.79802831821067    4.33930244322393
H        21.27414038379155    2.18519801990889    3.39005707009697
H        22.47159824055795    3.88914028984799    5.62404466374217
H        22.53976351746649    4.24938550130219    3.89891190044588
H        20.74519847554042    5.55001138451545    5.02822715333147
H        20.08033658263272    4.45310170129120    3.81453396386652
H        20.20367172915511    3.93469786538163    6.81499620733353
H        18.74334306246132    4.34723355317895    5.90766190608732
H        14.42846102094267   -0.72459961128926    7.37128443318813
H        13.75952994901338   -0.59255492293303    9.00605496843515
H        13.45938165794721   -2.03885418349358    8.03311222202021
H        14.55987173673279   -2.22161750394610   10.81130960812831
H        14.32792147170545   -3.55473218286409    9.68774866786841
H        15.89530048501854   -3.33543109033928   10.45330373974148
H        15.42950874293757   -3.66751357947430    7.55186439644743
H        17.03897212369598   -3.25211384687646    8.15968670079773
H        16.30376732875131   -2.29872121712830    6.86320418780724

