139
CSD_code = QEVXEV | q = 0 | S = 0 | Stoichiometry = C52H60B18O4P4Zn | MND = 4
Zn       -0.61278682500231    1.89069868663899   11.85409785420583
P        -0.34206894209950   -0.82664047282182   10.56032061107294
P        -0.78788726303863    1.95053935887505    8.71739265366159
O         0.01385568538223    0.11507290290744   11.68378389401232
O        -0.03884138102113    2.20047507107204   10.00313956052419
B        -4.52621950083250    0.24196091145265   10.20318578931029
H        -5.38858696641493    0.51885224070680   10.95444325850673
B        -2.86304714732657    0.71290034464402   10.45679518974814
H        -2.32942177901407    1.33194855004001   11.35026438518166
B        -3.76322318067435    1.46203850115517    9.15729764412423
H        -3.92513152502696    2.62800378907296    9.18594403133889
B        -4.76147774298465    0.23697392756379    8.43075386098605
H        -5.79041136707960    0.47957496668414    7.91295274213229
B        -4.46362463015363   -1.32034265049891    9.25447650428953
H        -5.30518117103184   -2.13429534318620    9.39304183002662
B        -3.34827534544573   -0.97472842293751   10.57191594646010
H        -3.21770189385261   -1.57798425576743   11.57384114266647
B        -3.20192362266463    0.66040134621571    7.66751265856302
H        -3.04396078360453    1.37749246618519    6.73391528629116
B        -3.72903610126644   -0.98594205338224    7.62308750106612
H        -4.17148450113819   -1.58447511901695    6.70316878943968
B        -2.71261215834621   -1.76232450810863    9.07461573276114
H        -2.29290690315893   -2.86076368488861    9.22021898562636
C        -0.42170106408106   -2.47509972196772   11.33015232034260
C        -0.92732733194164   -2.54977056297647   12.62228839692459
H        -1.26098042210984   -1.64736454960391   13.11155317161668
C        -0.99120331056272   -3.76463948269752   13.27922604190772
H        -1.38285438853562   -3.81229916689332   14.28440100548378
C        -0.55011380452242   -4.91543973945373   12.64717708430212
H        -0.60033478872841   -5.86637288971676   13.15634935574749
C        -0.03845063145686   -4.84500169705968   11.36196185102556
H         0.31157217390011   -5.74018567544201   10.86952157280048
C         0.02896673105077   -3.62885280073257   10.70493505843058
H         0.43764146329131   -3.57985838044403    9.70657821530078
C        -1.89791222774887   -0.50169996221035    9.70176945777169
C        -2.14117093294042    0.77453136879167    8.87775419403630
C         1.05793150419578   -0.94675699434982    9.41078294156099
C         2.29153061922056   -0.46983516721729    9.83190012161020
H         2.35843103393999    0.04439350542394   10.77932286847315
C         3.41097012126554   -0.64710926838327    9.03952039006730
H         4.36855949423137   -0.27182821499825    9.36772555367357
C         3.30222959623135   -1.31360769243437    7.83026464461603
H         4.17668251725782   -1.46266695454608    7.21466499257556
C         2.07194569426109   -1.78834160242936    7.40548460819086
H         1.98833839653361   -2.30416991405588    6.46054409173708
C         0.94888286363850   -1.60359084562195    8.19114083762050
H        -0.01278139277903   -1.96824713290970    7.85917319960007
C         0.40353177833538    1.43634085635125    7.43864398153554
C         1.71025955105091    1.88806376055587    7.56496117750029
H         1.98957344271157    2.42890779159119    8.45729702098726
C         2.63306683022902    1.64020736325739    6.56538851538486
H         3.64804560935293    1.99421549199408    6.66804534233736
C         2.25033750733259    0.94683199415101    5.42906337083730
H         2.96675215206284    0.76169822456744    4.64244703495753
C         0.94848744826054    0.49090907725865    5.30122547613350
H         0.64964493531223   -0.05007677565138    4.41548627008040
C         0.02411330612525    0.73382681213556    6.30195925090917
H        -0.99350724846752    0.38782865620838    6.19957562509121
C        -1.42114478906387    3.52883811124251    8.06071797804524
C        -1.36934571416785    3.84222316854238    6.70930057253613
H        -0.94167251192028    3.14218308960841    6.00725587477790
C        -1.86620335618326    5.05264948355583    6.25895698230280
H        -1.82530601344808    5.28985161132566    5.20611004783127
C        -2.41517971590863    5.95709971773389    7.15296689076014
H        -2.80221085309763    6.90060601072625    6.79737818902534
C        -2.46724874025832    5.64939565185039    8.50215303545177
H        -2.89243026745859    6.35140131330013    9.20439943282560
C        -1.97524477975359    4.43781985105882    8.95313068799928
H        -2.01357301633587    4.19296875978032   10.00224130007000
H        -2.55931745275087   -1.48936848979796    7.78608946805644
P        -0.88321439452258    4.60831742370574   13.14755909875243
P        -0.43805538455039    1.83115396309718   14.99080490203656
O        -1.23934607483651    3.66635937854241   12.02436124386123
O        -1.18687590066786    1.58094611963262   13.70497573990295
B         3.30079051373440    3.53909294716522   13.50539894579225
H         4.16321774163047    3.26200306358374   12.75428426701648
B         1.63757689060079    3.06837227740630   13.25152618337281
H         1.10395595264742    2.44935874427007   12.35801932346384
B         2.53741965043333    2.31927743475170   14.55129203533203
H         2.69912344681308    1.15328254517167   14.52278887166244
B         3.53584453050660    3.54420884432409   15.27786580030664
H         4.56466760668533    3.30145988506084   15.79582750355375
B         3.23835173178602    5.10148220127892   14.45399512584670
H         4.08005576828238    5.91528961582752   14.31548611593530
B         2.12307517954945    4.75592516163952   13.13645899378791
H         1.99270737593322    5.35914244444566   12.13448925788586
B         1.97598691583878    3.12134274283443   16.04082028372195
H         1.81774371668416    2.40441934029645   16.97443787486289
B         2.50374645960251    4.76747445751089   16.08543866145520
H         2.94613638963514    5.36600300291991   17.00544201680700
B         1.48733411224434    5.54354032151571   14.63372595581295
H         1.06786284062629    6.64200866512135   14.48796945551173
C        -0.80302626335137    6.25653384335854   12.37727736119896
C        -0.29730261871473    6.33067146532293   11.08514608759842
H         0.03613610804852    5.42802130095607   10.59618286969338
C        -0.23306600717596    7.54532341342008   10.42784571454955
H         0.15864466934652    7.59257456084026    9.42267517785050
C        -0.67387517025614    8.69643437953373   11.05952534449323
H        -0.62337087201951    9.64719902078512   10.55006591552626
C        -1.18560959771841    8.62653164916684   12.34474225754988
H        -1.53541785400618    9.52196174313699   12.83688921019663
C        -1.25338383740625    7.41060003405042   13.00213708391691
H        -1.66212389762785    7.36201195142659   14.00048827676380
C         0.67246816876410    4.28315156882059   14.00631344666632
C         0.91540360191989    3.00697487826310   14.83044527407492
C        -2.28324950269118    4.72914026301686   14.29698165331175
C        -3.51695580579176    4.25252830546150   13.87582863183371
H        -3.58391038529049    3.73812557518505   12.92850679568823
C        -4.63641782572823    4.43030684036337   14.66805844583001
H        -5.59408658722450    4.05526363632921   14.33982214565896
C        -4.52758942464020    5.09698782542009   15.87720316890268
H        -5.40205761039850    5.24643484774105   16.49268444646336
C        -3.29719792028632    5.57140498457384   16.30202544048000
H        -3.21352647452867    6.08738178118303   17.24687946459766
C        -2.17411460349314    5.38616090022922   15.51651359615587
H        -1.21237637167600    5.75059241190109   15.84850723431025
C        -1.62962846162176    2.34582826635407   16.26922238331954
C        -2.93645173060066    1.89444954656337   16.14266367644356
H        -3.21570542942914    1.35356700041707   15.25033282532454
C        -3.85942091609055    2.14270364948221   17.14198771557520
H        -4.87447647678058    1.78897451536114   17.03913541938229
C        -3.47676353163892    2.83612640446117   18.27830756772016
H        -4.19331280769486    3.02156958033661   19.06472913282305
C        -2.17481566854533    3.29170460478800   18.40638822363516
H        -1.87603084138751    3.83272248943805   19.29212958196539
C        -1.25027870490915    3.04839763880457   17.40589829776054
H        -0.23258383265722    3.39412473982329   17.50847476336991
C         0.19495001250487    0.25294433569875   15.64789833006796
C         0.14296028976641   -0.06020452966411   16.99935981259113
H        -0.28473282261459    0.63999642473398   17.70123338675469
C         0.63961115884061   -1.27062269785234   17.44995528894165
H         0.59855348030221   -1.50765939871102   18.50283358086830
C         1.18858638606740   -2.17528033568837   16.55615374653087
H         1.57548040901951   -3.11876775930366   16.91194151448019
C         1.24084512373021   -1.86780686214422   15.20692143198104
H         1.66603265564003   -2.56997190768777   14.50483917154524
C         0.74903219975198   -0.65624972418330   14.75569019044039
H         0.78751090659938   -0.41155874732216   13.70654446440729
H         1.33411464526639    5.27099046367630   15.92239544123071

