85
CSD_code = QEVYIC | q = 0 | S = 0 | Stoichiometry = C46H32N2NiO4 | MND = 4
Ni       -3.74884432099576    3.41948256793531   11.22981826788283
O         1.03785750251998   -0.96234083328710   12.55416576408693
O        -4.34397139530548    4.36844097669234    9.78375835793573
N        -2.66691961053236    2.34957522192621   10.05284833062253
C        -2.77429301977669    2.27247931474786    8.75516381069908
H        -2.12773693262536    1.54667944293175    8.26410815419898
C        -1.73011259927167    1.48447414371804   10.66076576157679
C        -0.68963100664580    2.02138350325611   11.41734368347417
H        -0.61446099647933    3.09551968844639   11.51640919229936
C         0.21330883286729    1.19348256468146   12.04836570729002
H         1.01834303180423    1.59785417814602   12.64185000593429
C         0.08934129131206   -0.18893498313201   11.93525642408929
C        -0.92803551049016   -0.72979493977481   11.15612463707125
H        -1.01300248046310   -1.80195066215409   11.05322807929421
C        -1.82862998846259    0.10343437307792   10.52106726201048
H        -2.63410119440658   -0.31904627565226    9.93775555588946
C         0.67378205816028   -2.13152041909741   13.16876797392115
C        -0.57683558566150   -2.33239821160103   13.74354278958407
H        -1.33159104911682   -1.56202750800951   13.67895046357857
C        -0.84448967625839   -3.51714124196421   14.40480969552271
H        -1.81722219147532   -3.66574672929604   14.85007681209764
C         0.12298377029446   -4.50216075548451   14.50411293642150
H        -0.09361808606506   -5.42458247053078   15.02122009125391
C         1.37208073241819   -4.29472173173968   13.94211294362287
H         2.13413148790636   -5.05586320239498   14.02022940289408
C         1.65090170685433   -3.11683657528144   13.27630368694516
H         2.61938068167706   -2.93756117164806   12.83586614623685
C        -3.57837642901534    3.08195540577975    7.92507369775819
C        -4.29977816880803    4.14990864770594    8.52668616880721
C        -5.01689676520138    5.05501468661872    7.67826287788422
H        -5.54583275843772    5.85953394071967    8.16665744507308
C        -5.03659205648871    4.89358002101179    6.33647387360861
H        -5.58492953816082    5.58478022582358    5.71132140120369
C        -4.35769784019208    3.81460411344267    5.70744576378535
C        -3.62863034908391    2.89266764217540    6.49944249929991
C        -3.00225289914775    1.82403550471991    5.83410010621709
H        -2.45554163791333    1.07969186389875    6.39206585572681
C        -3.07459481557984    1.68677723588989    4.46978829388409
H        -2.58234881118581    0.85367328153449    3.98922279419336
C        -3.78107244600716    2.60872041305298    3.69648751566683
H        -3.82909978984010    2.49042992890955    2.62443034123379
C        -4.41531564080903    3.65512227246608    4.31400799474377
H        -4.97542195033065    4.37546914040764    3.73470658301096
O        -8.53489165812387    7.80200766117567    9.90545810700807
O        -3.15372117822691    2.47049749156156   12.67584884740055
N        -4.83076851696832    4.48937261288488   12.40680041030268
C        -4.72352512643902    4.56633081417146   13.70450512989074
H        -5.37006087443874    5.29214677043274   14.19556394028171
C        -5.76741670567963    5.35464512483186   11.79887453431399
C        -6.80798229478979    4.81793829050243   11.04227007451061
H        -6.88335091194430    3.74381924385340   10.94318235402181
C        -7.71076070664610    5.64601622657175   10.41124689946664
H        -8.51585346981809    5.24179954251322    9.81773627175863
C        -7.58654167164951    7.02840860428019   10.52438390623210
C        -6.56907748555902    7.56906959602093   11.30354035256218
H        -6.48391199584959    8.64120887504429   11.40644777998705
C        -5.66864609748268    6.73566431402289   11.93859784972186
H        -4.86311019748629    7.15798154201041   12.52193920603824
C        -8.17054413069515    8.97110672156907    9.29086119889011
C        -6.91987179468037    9.17170252052034    8.71610832129232
H        -6.16530502812122    8.40114434322303    8.78067350835250
C        -6.65192334892337   10.35640194381345    8.05488305043242
H        -5.67917815054010   10.50475102295744    7.60955881348601
C        -7.61916739692086   11.34164723330731    7.95557425679613
H        -7.40234926467996   12.26401576359852    7.43846149377005
C        -8.86832649899560   11.13448164337728    8.51753654308294
H        -9.63018552367433   11.89581907635947    8.43946021722422
C        -9.14743123802147    9.95665343370539    9.18333027105655
H       -10.11594279838474    9.77762118472226    9.62379300450623
C        -3.91955670683274    3.75674389752350   14.53459779651240
C        -3.19805618474425    2.68888218995001   13.93293956863374
C        -2.48105380346477    1.78365966688572   14.78133616596359
H        -1.95201155102081    0.97923532809268   14.29289256575156
C        -2.46151712741467    1.94493399734262   16.12314236039339
H        -1.91316741012701    1.25372239604008   16.74827394168612
C        -3.14046128166635    3.02384311200478   16.75222593712761
C        -3.86947378459054    3.94585018790716   15.96026012476722
C        -4.49598716344507    5.01436386114341   16.62567026235318
H        -5.04263342379319    5.75877566432445   16.06773769923123
C        -4.42378510760560    5.15146724872080   17.99001006158020
H        -4.91602605135975    5.98454054002502   18.47061886796324
C        -3.71729068825952    4.22949550411413   18.76327055565791
H        -3.66936884239428    4.34766433817806   19.83533963125572
C        -3.08295406641740    3.18318121228241   18.14568528407225
H        -2.52294629770078    2.46274666977831   18.72496768613605

