31
CSD_code = QEVYIZ | q = 0 | S = 0 | Stoichiometry = C13H11Cl2N3ORu | MND = 6
Ru       10.13286553041121   11.80687139259950    1.90885239396456
Cl        8.18530525239724   12.76196745998157    2.82848202337769
Cl       11.55062509919027   13.38409024738676    2.98270985633812
N         9.72689430426902   13.06076727508776    0.37674072740740
N         8.86136164424898   10.67369346033144    0.87719893414538
C        10.30243787640887   10.75987265324675    3.43009305165457
O        10.35744912693462   10.19704064787485    4.42078292480048
N        11.78022413124159   11.19117064508184    1.07771209527525
C        12.90207621453676   11.13475946018940    0.82212308811798
C        14.29566738730500   11.04491274968287    0.51070506937101
C        10.24490160673848   14.26993301999212    0.21043575420673
C         9.68835915703166   15.20786620321139   -0.64273271874590
C         8.54269700628073   14.87090548121570   -1.34830847279008
C         8.00435476248819   13.60845706442668   -1.18193994280941
C         8.61700154969054   12.71536165885262   -0.30324558882008
C         8.15063584570478   11.35323995099367   -0.04992465657821
C         7.07816029851900   10.75937198821423   -0.71433254607926
C         6.72690086919293    9.45658918410459   -0.42063521388275
C         7.47536132386427    8.76592900846039    0.52556616893122
C         8.52625659364434    9.41213270291260    1.14445352653339
H        14.83692070525484   11.74840175796934    1.14410000274273
H        14.46475120389767   11.29821343899728   -0.53560189101532
H        14.65735413757251   10.03499127712016    0.70357302852067
H        11.12131392749342   14.49614488261084    0.80815743791860
H        10.13601410005017   16.18400979282137   -0.73506912659591
H         8.07143436347835   15.58168717351195   -2.00996014702402
H         7.10654292939872   13.32897582649252   -1.70816950215010
H         6.51844407657148   11.31856878304754   -1.44581640413289
H         5.89023191809160    8.98805469436117   -0.91440968437533
H         7.23995373731155    7.74716747260948    0.78717032733300
H         9.12590332077697    8.90705264660441    1.89098948436036

