46
CSD_code = QEVZOH | q = 1 | S = 0 | Stoichiometry = C17H23ClIrN4(1+) | MND = 8
Ir       -3.18881258982106    3.73912312838406   17.24943568189853
Cl       -5.27052418554860    4.24719053634696   18.19854159860975
C        -3.98828133583568    3.05330375963294   14.09355344293016
H        -4.33316363508808    2.83863306501636   13.07962857519943
H        -2.89525417701933    2.93400149302860   14.15154767922274
N        -3.92484873760850    4.91471091809163   15.61788004553469
N        -4.32261300878299    4.40816778486684   14.44019674387249
C        -5.02383314893029    5.32192567183860   13.73977258811471
H        -5.42598435801914    5.10778133589401   12.77060503966620
C        -5.07154051543996    6.46707467146861   14.49810200881856
H        -5.54499076983828    7.39355951064315   14.25112760004737
C        -4.37432206235619    6.15892493445094   15.66843579523395
H        -4.19783245264491    6.77490053721916   16.52718361630093
N        -4.28423209684565    2.17459542931790   16.31853481732951
N        -4.60311005407751    2.13494085332216   15.01513356121911
C        -5.51479331580744    1.17132293262273   14.77672049040164
H        -5.89498187406138    0.98043583035583   13.79387917863189
C        -5.78798751552516    0.56212739919573   15.97803265750682
H        -6.46435515690248   -0.24585522241366   16.16035020153879
C        -4.99708171176926    1.23115297121486   16.91452540461522
H        -4.93236027992041    1.07624168691596   17.97285392810283
C        -0.95852537632097    4.00213091964570   17.13555793884224
C        -1.22420739257587    2.70191130192423   17.62741736188220
C        -2.01017429593421    2.83470095373284   18.83715199904619
C        -2.10912556088674    4.23277339696759   19.15044403946316
C        -1.55292936281801    4.95789962232722   18.05531738078961
C        -0.07028329428820    4.36515050664992   15.99358101062062
H         0.92199382035586    4.60931174904222   16.37524728552172
H        -0.44334936397377    5.23776279421010   15.46182640613845
H         0.03521888270719    3.54317346249825   15.29007289264205
C        -0.69871751961765    1.41384266838554   17.09227540202321
H        -0.40344603093815    1.50086379365865   16.04991879715075
H        -1.43371210145119    0.61708997671022   17.18367243886233
H         0.18052411504812    1.12206849305717   17.66814686815384
C        -2.35723595982532    1.73197440756207   19.78008711646088
H        -2.46027776730963    0.78202680395907   19.26222448733251
H        -3.28375247770218    1.95412162964992   20.30415004345806
H        -1.56594657950035    1.62706175671924   20.52401056591766
C        -2.66005886193230    4.78904737331046   20.41404477099383
H        -2.24549310985757    4.24739299406656   21.26276434115500
H        -3.74409828118301    4.67812297075380   20.44559264101983
H        -2.42155413249683    5.84361623537223   20.51471825578181
C        -1.34704250956017    6.43497604905810   17.99984807835767
H        -2.14989253123552    6.96019781515233   18.51066345629291
H        -1.29467722166870    6.78909647890822   16.97320448590449
H        -0.40673410521615    6.68872661927309   18.49162128138130

