34
CSD_code = QEWFIH | q = 0 | S = 0 | Stoichiometry = C17H12BrN3Pd | MND = 4
Pd        8.29853683136414    2.06955727130154   10.76024278191007
Br        6.18608434215932    1.79808542850688    9.76586841539070
N         9.23215737398210    0.39153977822847    9.87225230798076
N        10.17574483527380    2.19987966239610   11.60672331676262
N         9.71002946072751    3.81336260856522    8.78484134615608
C         7.65636746196961    3.79654042932241   11.49230727074821
C         8.20342960684258    4.77556429047585   10.64266371410548
C         7.97588249975191    6.13470530673308   10.84075203734674
C         7.18610086982014    6.51711042309610   11.90939342080409
C         6.63300553614379    5.56276295757653   12.75190997863784
C         6.85667935338487    4.20719615090320   12.54635921839729
C         9.00999896398345    4.23103055341316    9.60330179877818
C        10.55704886609161    0.37026019523666   10.10197231663599
C        11.35832173242983   -0.63767197707754    9.56461035639524
C        10.78319694143483   -1.61101257932436    8.76778356423129
C         9.41879240996070   -1.56141351362947    8.52714799750046
C         8.68134793222421   -0.54201225596201    9.10671019146836
C        11.08415838762362    1.44016386546896   10.96286231198386
C        12.45040341197724    1.67443490804386   11.12003069690772
C        12.88154219268028    2.67852082288077   11.96566114332182
C        11.93344127660685    3.42254327805032   12.65394669449954
C        10.59541375442097    3.15141609317380   12.43748401387710
H         8.40402732806820    6.86446401426850   10.16862062050681
H         6.99044133202379    7.56486287660166   12.08323252757345
H         6.00907306257085    5.87834496782328   13.57599893674051
H         6.39596213172688    3.47612976428530   13.20125204073650
H        12.41523990155026   -0.67020930899314    9.77164785058565
H        11.39158566431812   -2.39531948198200    8.34366989498264
H         8.93175679900031   -2.29630521919423    7.90728414608708
H         7.61053367511083   -0.46824209441141    8.95089933384238
H        13.17043280061776    1.09202270832150   10.56955353939039
H        13.93523193334415    2.87697222867609   12.08680966614391
H        12.22295643754878    4.20590368876844   13.33532614390596
H         9.82737489326515    3.71821215846126   12.95148040566271

