79
CSD_code = QEWGOR | q = 0 | S = 0 | Stoichiometry = C32H37FN4NiO4 | MND = 4
Ni       14.01468527424758    2.04849116208351    7.58084393399337
F         8.90040491584856    7.80118152216806   11.12527722722267
O        11.29034603474652    3.01585939942123   14.46915186606423
O        14.30269354717458    1.08017087244264    9.15845434622009
O        13.69410563756897    3.03265197799140    6.10322851591249
O        15.06041964353115    0.83907368377130    6.48183230323897
N        12.31922525347507    2.72059474579790   12.43955750174670
H        12.35085338772841    3.05291054203611   11.46429567433926
N        12.99456491754782    2.74975608490624    9.92847627964447
N        13.03798402981704    3.13863831316402    8.62160770884237
N        16.25313676254464   -0.82147497960544    5.55634558358824
C        11.49161221060235    5.37990113176197   11.79945624380774
H        12.51468815600957    5.18237414300743   11.51612034525523
C        10.84107893008239    6.47778324272159   11.26584116519882
H        11.32843064078396    7.13212008649273   10.55941247239423
C         9.54012814705660    6.73949088601875   11.65845540979205
C         8.88123175934756    5.95131843205245   12.58490372594425
H         7.87173718637768    6.19458442595962   12.87598819120516
C         9.54679889316933    4.86408545294915   13.11863599754238
H         9.06889187766892    4.23236444139534   13.85158057721393
C        10.84364903208531    4.55777715930073   12.71771340308966
C        11.50509211136908    3.35625956675332   13.32242655523674
C        13.09435007314614    1.58476012277563   12.60504183226658
C        13.23488510045433    0.94917122064493   13.83743805510706
H        12.71176965900693    1.35033157877685   14.68957505976601
C        14.02716325790343   -0.17485108500622   13.96439452042687
H        14.12327900818795   -0.65067091542873   14.92902327070805
C        14.69664356510247   -0.69098832397854   12.86503441024539
H        15.31678800942328   -1.56903952859005   12.96629554889430
C        14.56433810480092   -0.07245642559481   11.63939699545209
H        15.07576581414472   -0.45487605566068   10.76884732195824
C        13.77190723813089    1.06384603306943   11.48238305915874
C        13.68836764638503    1.65159457742544   10.13624224810833
C        12.37698494339060    4.21269494010930    8.28758241106492
H        11.82619234056529    4.71407952679526    9.07985626411978
C        12.32803399508212    4.76369117749030    6.98475393846646
C        11.60042059499794    5.94763449360066    6.76184940039176
H        11.09848205709544    6.38492206972815    7.60948635571644
C        11.53662582831388    6.51684430198709    5.51809779558547
C        10.77596190359179    7.80010149008448    5.22189859382869
C        10.12022817978682    8.39117616234849    6.47279023958644
H         9.39636031444328    7.70147396558672    6.89992530903222
H         9.59533303273325    9.30730407204014    6.20990664236626
H        10.86609340269823    8.63644580272077    7.22506091779646
C         9.67273723799032    7.50633952857861    4.19598551243085
H        10.08720020674775    7.13747131173505    3.26175636332240
H         9.10713887032553    8.41130191593101    3.98379550281992
H         8.98936303271713    6.75499782563612    4.58594652458987
C        11.74832632102753    8.84454960183833    4.65566524416658
H        12.55106869042338    9.03281729545109    5.36553766978979
H        11.22568731856846    9.78041519759980    4.46878036150258
H        12.19135512692674    8.51151233486531    3.72123187897604
C        12.21431264631175    5.86738350332064    4.46890533581927
H        12.15520419140247    6.31321650464184    3.49082628268791
C        12.93730937457907    4.70967643914798    4.61849256906311
C        13.65156022796463    4.03503889537535    3.45352100142260
C        13.46890257401617    4.78502624846757    2.13017849396348
H        12.41968523050572    4.83821408460867    1.84841449220309
H        13.99952816167958    4.25381598174943    1.34217266848489
H        13.87741857019081    5.79146506096417    2.18735644354675
C        15.15552532507055    3.96645761704763    3.75502156536072
H        15.55736604394500    4.96897773681715    3.88776448251649
H        15.68152709651937    3.48908346537070    2.92994150023229
H        15.33570927316803    3.39850658388549    4.66253864572686
C        13.09012707471837    2.61702033844607    3.27522786936247
H        13.24133163307419    2.03282364771619    4.17778337888636
H        13.58728736713130    2.11868381384751    2.44462687263618
H        12.02326580681113    2.66012950480632    3.06488364677006
C        13.01690144490910    4.12017913037008    5.91683215205573
C        15.67060964672823   -0.22085850082102    6.58869995217668
H        15.77967535477853   -0.75034789788970    7.54528405304068
C        16.97121229802834   -2.06229256249566    5.67687514773160
H        18.00712658100736   -1.93087366290858    5.35596949303159
H        16.50982245429648   -2.82784245392261    5.04863958562658
H        16.96234465420024   -2.40185940703135    6.71026195350820
C        16.18438416142044   -0.23537410940456    4.23636863284357
H        15.59766208786992    0.67930833474783    4.29523428572467
H        15.70927182958559   -0.92955795682099    3.54170945943221
H        17.18711966710823   -0.00180684524991    3.87518576102919

