134
CSD_code = QEWGEH | q = 0 | S = 0 | Stoichiometry = C58H61CoF2N6O6 | MND = 6
Co        9.19060067929031   10.08305195846283    9.25646919227988
F        13.56970122418666    5.58222376257325   12.45300461776176
F        13.00633115290093    9.54146527575592   16.64055765479909
O        10.93549849759657    4.30986126337425    6.89772391565952
O         8.65114476928451    8.40567943097508    8.46128918870511
O         9.70950471613790   11.70679960578717    9.91372280340924
O         6.80277762375126   10.56111533442648   16.21470123905664
O         7.43925201613948   10.36734740604243    9.90867256734042
O        10.89517317941925    9.70770399851826    8.62859471601539
N         9.62412027637851    6.05844196103699    7.56884413807687
H         9.57166598798091    6.80671981400801    8.25479923530825
N         8.36180002932320    9.78965494716818    6.73315633240646
H         8.19609092464527    9.98736612482233    5.74964675282506
N         8.78295376807603   10.77883695274777    7.56480388714533
N         7.33068757695236   10.14905821396696   14.02169294113172
H         8.08335050135537    9.85421104094126   13.38752462258326
N         8.45071913481349    9.51861721731987   11.74488920091919
N         9.52145631767884    9.42875496181970   10.92189734820051
C        10.79607784241524    5.78944054084178   10.15994441734251
H         9.74863461452384    6.05104987810405   10.18316781632621
C        11.52768897208333    5.87098115082347   11.32869686029003
H        11.07505291458567    6.20022058987795   12.24996043412137
C        12.86291744136608    5.50997973579659   11.30947717559427
C        13.48607797126671    5.05765986048585   10.16044695546057
H        14.52609902722278    4.77460982428029   10.18267040320032
C        12.74009706940240    4.96277227024629    9.00316385181382
H        13.18421411697374    4.59298750921568    8.09155436726351
C        11.39785736413346    5.33348179910475    8.98930144752551
C        10.64690136689362    5.15870241353980    7.71373637791984
C         8.75150350343497    6.20187003707266    6.50743997144409
C         8.53285305586036    5.18262096454503    5.58046134082750
H         9.07359319167476    4.25760110015708    5.68990220376163
C         7.64136096966377    5.35705673067291    4.54194939018657
H         7.47819472542197    4.55229534173842    3.84192950009903
C         6.94613376303619    6.55040159577241    4.39929199797223
H         6.23721690514739    6.67583300256992    3.59593083598892
C         7.16634427987066    7.57809265749434    5.29208785286262
H         6.60709129492847    8.49754499151500    5.19660216590739
C         8.06708816600260    7.42761259264616    6.34887292823169
C         8.35008937640709    8.54620882364505    7.24916359822085
C         8.97434375125523   11.98214189889048    7.12837123219664
H         8.75564562354388   12.20009209638137    6.08088316563497
C         9.45700486267723   13.03704087478707    7.93298389467650
C         9.61657107245179   14.30328510013508    7.32776403841123
H         9.36110972427683   14.38213142802159    6.28305603893335
C        10.07428380123559   15.38155510999639    8.03011947111394
C        10.28169958899740   16.75955104967611    7.42278013214691
C         9.93021891174695   16.79854433013619    5.93302828566273
H        10.55101632899695   16.10739373021916    5.36773685508780
H        10.10356073534271   17.80017920489862    5.54531715378161
H         8.88300347907015   16.55328690255105    5.77235168725604
C         9.38970261144559   17.77410661781985    8.15163694044868
H         8.34500833872553   17.48094640275334    8.07248452696885
H         9.50645420026565   18.76086734694029    7.70872646733836
H         9.64453485656481   17.84336275859193    9.20525732310945
C        11.75654974814976   17.15716895147079    7.57624007390991
H        12.04734877967121   17.20993916120423    8.62146096893840
H        11.93054941449831   18.13187944653713    7.12549578025718
H        12.39487900580762   16.42814315689604    7.08161429682580
C        10.35830436665990   15.18747207357310    9.39756265688588
H        10.69803457861309   16.04268496318838    9.95559931780238
C        10.22678006712396   13.99071992885126   10.05147067654743
C        10.51617687111912   13.85302720296036   11.54239601156888
C        10.94752497155048   15.17522914010400   12.18751007720370
H        11.87076570941930   15.54735056011460   11.74899865831063
H        11.12620638634985   15.00971610489393   13.24788619314383
H        10.17207467217504   15.93235326637493   12.09574943063049
C        11.64892613799219   12.83922239401399   11.75879985457963
H        11.38054849011710   11.86479579474272   11.36392105194243
H        11.85976896178182   12.74261757633845   12.82202447704791
H        12.55357386346363   13.17490197398880   11.25531065566939
C         9.23735171469918   13.38610186180898   12.25463345175902
H         8.43362340156851   14.10113740357313   12.08910162659921
H         9.41150305883979   13.30779134069162   13.32606274469459
H         8.91545505215564   12.42041272619474   11.87785870592155
C         9.78638595473184   12.84197334618963    9.31067958049856
C        10.07115283471233   10.46063688240373   14.75049009830120
H         9.83159647780637   10.90705205439154   13.79783007662716
C        11.40026329688234   10.27224857227153   15.08392548925574
H        12.19127280028431   10.54161539841147   14.40086390356301
C        11.71044395462383    9.73215157427714   16.31974703432019
C        10.73136780081743    9.39346451404830   17.23700327109207
H        11.01105746242244    8.98661128170406   18.19574229739064
C         9.40765357236585    9.59389338083831   16.89422013382956
H         8.61752002828523    9.35236462211675   17.58856776217876
C         9.06458611759646   10.10952361279987   15.64739336428413
C         7.61025255334998   10.30670900097342   15.34264292863562
C         6.14605123065394   10.34463535114775   13.33082987768446
C         4.94324261888260   10.62938111797907   13.97394525384631
H         4.93284848154601   10.68938856123378   15.04970695784165
C         3.78629531913480   10.83083736608119   13.24655925565530
H         2.86321862539584   11.04194390808449   13.76552414579953
C         3.80538299684028   10.76465779073465   11.86168676271898
H         2.90037783558326   10.92333876668783   11.29489553817448
C         4.99299454760034   10.49815800647509   11.21132626044182
H         5.03529936117003   10.45250421661774   10.13341602458885
C         6.17113162997761   10.27770518541984   11.92134042303439
C         7.40139878873750   10.03954600250295   11.14838779808085
C        10.67198976849916    9.11905318868058   11.42885821062850
H        10.70120122350806    8.89258271485099   12.49234567724034
C        11.89521289405998    9.08191571274427   10.70746434653976
C        13.07679072533482    8.82352357858932   11.42645765841448
H        12.98402976982430    8.66785650581322   12.48911426512940
C        14.29981796418392    8.79076861717929   10.80883917162194
C        15.61695752056874    8.64542448514979   11.55590509275027
C        15.42160173845431    8.55132655989771   13.07129245672835
H        16.39099853529559    8.45994576226519   13.55660479585618
H        14.83262989211476    7.67816343519660   13.33772186423650
H        14.93586274303892    9.44320335915542   13.45933256367534
C        16.35572941978774    7.38364088046023   11.09257286244355
H        16.47471196478577    7.36234173821764   10.01256823710876
H        15.80525335943863    6.49891855051444   11.39876433611024
H        17.34376717147183    7.34350581203490   11.54642660331672
C        16.47658158720585    9.88459222626493   11.26176012347593
H        16.73604338057807    9.94796312154319   10.20857967422942
H        17.39894838962113    9.84583543510132   11.83731944737469
H        15.93666398717789   10.78863764052472   11.53502355569858
C        14.31495195345580    8.94101486958042    9.41212755089633
H        15.26626927683642    8.86240847024881    8.91443013485834
C        13.19835607508792    9.19994694395159    8.65312272954670
C        13.27133183019229    9.36094005350859    7.13863042922185
C        12.30764077538291    8.36305329079705    6.47830187788065
H        12.58135005687039    7.34285704104261    6.74206289816914
H        12.34519001400400    8.46224349479164    5.39496951511473
H        11.28946432710585    8.54470541749832    6.80760832675369
C        12.87868487662148   10.79834632906664    6.76706563323613
H        11.88419624641225   11.02991331319427    7.13584008768111
H        12.89356816443190   10.92613154175820    5.68607259365937
H        13.57945099080978   11.50298843737216    7.20996029655262
C        14.67080716658578    9.09171936125280    6.57605421702942
H        15.39436119995196    9.81009345059292    6.95406681741075
H        14.64396158343604    9.18668341634141    5.49219699776354
H        15.00327901622476    8.08440627143843    6.81642087639368
C        11.94193067566557    9.34912590079757    9.31235766840767

