25
CSD_code = QEWGIK | q = 0 | S = 0 | Stoichiometry = C10H6Cl6N2Pd | MND = 4
Pd        1.98556656371031    1.42817669640761    3.35166613726958
Cl        1.08309789865243    3.07617017425299    2.01896075345458
Cl        1.41184631845622    3.08775502445231    5.79475219848644
Cl        4.69508197953955    1.93198467730088    2.14519313875869
N         3.25794001514968    2.71411885846097    4.08929355655507
C         4.44797073366777    2.89587055528161    3.51941061559691
C         5.38838182383736    3.78744502718532    4.00750385557570
C         5.06254389635989    4.51733607537116    5.14158752672507
C         3.82579014947708    4.33767418430221    5.74429716323707
C         2.95654139989877    3.42097478056371    5.17719108505712
H         6.33701773425750    3.89747718667389    3.51044854291521
H         5.76792745326404    5.22159381024926    5.55290681829556
H         3.53487891872128    4.88429143385063    6.62500412992781
Cl        2.88702710921129   -0.22004947523899    4.68477719964805
Cl        2.55939978330164   -0.23012036331968    0.90770442540398
Cl       -0.72346779729913    0.92201209927268    4.55895745181358
N         0.71361676094846    0.14168907075398    2.61405972973520
C        -0.47607012314735   -0.04129103474025    3.18433602760387
C        -1.41586304032567   -0.93355720665587    2.69629495613554
C        -1.08978657853107   -1.66287456105304    1.56188426716177
C         0.14660360131661   -1.48200529086232    0.95882316958930
C         1.01526120560006   -0.56469850249358    1.52587447323490
H        -2.36434312926414   -1.04473509535661    3.19338431156473
H        -1.79449243271293   -2.36769214563138    1.15033787722857
H         0.43792975591039   -2.02814597902757    0.07795058902563

