37
CSD_code = QEWGOQ | q = 0 | S = 0 | Stoichiometry = C14H18Cl2N2Pd | MND = 4
Pd       -0.63753663081738    7.13743463763939    4.98453240269057
Cl        0.82535366604774    6.71860881184545    6.70409358021044
N        -0.23055796574956    9.03455081498161    5.10832654553019
C        -0.94981452771558    9.80944737834304    5.92524660068413
C        -0.67213031588260   11.16358079270363    6.04603077498459
H        -1.26583093063668   11.77033930194913    6.71291736117425
C         0.36220594748833   11.73500876507397    5.31605546507412
C         1.09058119678243   10.89870114919388    4.47161527337511
H         1.90361559670876   11.29034164855638    3.88078675352194
C         0.76266555907308    9.56064246623195    4.39805819763774
H         1.30940695738045    8.87765811171185    3.74974471044654
C        -2.04759142750730    9.12813125661563    6.68267926919128
H        -2.74576903956566    8.66544338950838    5.96873920864402
H        -2.59026598097271    9.82895351371227    7.31171530303066
H        -1.61347884327068    8.33698817076716    7.31251424732441
C         0.69618183768333   13.18630621506771    5.42782272042145
H        -0.01480602482393   13.70430825557583    6.06540042478004
H         0.69300976412631   13.65120221474557    4.44345327329874
H         1.69427043770684   13.30676671388927    5.84739753030333
Cl       -2.10241162405383    7.55646290281205    3.26720574435672
N        -1.04489963457632    5.24030315678949    4.86362472621586
C        -0.32595826672080    4.46535459211540    4.04656622454455
C        -0.60389972888298    3.11129853648327    3.92569493212709
H        -0.01031946804659    2.50448431841665    3.25875357795398
C        -1.63828371094695    2.54002286735990    4.65571547056950
C        -2.36654257650468    3.37644477710678    5.50016752279798
H        -3.17964671596443    2.98490956597532    6.09097135772554
C        -2.03833183732102    4.71444418980346    5.57382592682094
H        -2.58509803786279    5.39757423324348    6.22198170192072
C         0.77167589158049    5.14677244939553    3.28905452623001
H         1.46991181056419    5.60945230814721    4.00292721127375
H         1.31428824835050    4.44600554598958    2.65990696322553
H         0.33749190002665    5.93793441321042    2.65932657037433
C        -1.97235004541733    1.08874204508335    4.54400164507619
H        -1.26143741850789    0.57068995821656    3.90637689191589
H        -1.96912666061710    0.62385401129184    5.52837458613846
H        -2.97047140115447    0.96833652044780    4.12449477840987

