66
CSD_code = QEWHAC | q = 0 | S = 0 | Stoichiometry = C29H30O4P2Pd | MND = 5
Pd        7.28182965295283   22.84506805001232   -7.15468121588743
P         4.64026666549579   22.38720917585269   -5.89843700240441
P         5.95213496909292   22.02698251284453   -8.78656184926421
O         5.56216968515950   23.57366093477573   -6.01737230745398
O         5.60706183720906   21.05030512003941   -6.17061688717195
H         5.24681908479570   20.33197740001523   -5.64645917954897
O         3.86274947060730   22.17356443510232   -4.66914813037682
C         3.60474676838666   22.44670225861550   -7.40679367989621
C         2.25483541968984   22.71165443071810   -7.26797471079036
H         1.83493092841699   22.69616729862550   -6.27352314872736
C         1.48258236415477   22.99251216407242   -8.38180512598887
H         0.42621963779606   23.19086590019367   -8.27435484074241
C         2.07329712080730   23.04703467653265   -9.63511595430163
H         1.47872043494255   23.29396197765633  -10.50310586420701
C         3.42592852384346   22.79289662797978   -9.78187019935476
H         3.88778035682319   22.86122355456154  -10.75838504026030
C         4.19564389750375   22.47566262736700   -8.66573025202120
C         5.84211817399036   20.26104056872951   -9.20980337897692
C         4.89032341988163   19.77165055749213  -10.09947808695943
H         4.17927640209433   20.44298353933046  -10.55961710165530
C         4.84589108921449   18.41825816189927  -10.38238499780583
H         4.10853391607283   18.03933663922700  -11.07519176975115
C         5.73813391267663   17.54820124782676   -9.77592282575656
H         5.69583898546781   16.49230510940433   -9.99944069649816
C         6.67465668889196   18.03105763193361   -8.87681422333567
H         7.36376732803159   17.35229836672507   -8.39649879959764
C         6.72530912836669   19.38363841518799   -8.59259702348704
H         7.44261383544742   19.78207472453722   -7.88972667196517
C         6.45796798098435   22.89900283689704  -10.30553855830956
C         6.77792383581782   24.24190289855365  -10.10293707673347
H         6.69780894523371   24.65385472107822   -9.09122967149536
C         7.18420579125360   25.02702042791693  -11.16380281557282
H         7.42589819196088   26.06851505534726  -11.01015174967234
C         7.28993422455166   24.47075693722644  -12.43090330080476
H         7.61413857782139   25.08030049742750  -13.26129247573950
C         6.98980931083403   23.13447788215243  -12.63145473403430
H         7.08274193071759   22.70271573290063  -13.61727569637398
C         6.57202798730371   22.34463062341322  -11.57198712832114
H         6.34615504414697   21.29914968439476  -11.72805931888398
C         8.60574620273357   24.39534539294407   -6.44462131733147
H         8.04200842582350   25.27822564451960   -6.75846011937071
C         8.34585943403032   23.65555687777541   -5.32755273306002
H         7.51703060824758   23.83386051661303   -4.64666011355920
C         9.56776859980437   22.92030713913650   -4.84322114050345
H         9.37860151656128   21.87314979361203   -4.59768720717762
H         9.90335485482561   23.40115760159201   -3.91857612867166
C        10.61003768669251   23.10752189277044   -5.96058334476117
H        11.54737439982443   23.48444060521875   -5.54548483226048
C         9.99258654214053   24.11950970770623   -6.96695221482404
H        10.57560298050346   25.04026188054419   -7.05551353276272
C         8.93430336879547   22.21303732453359   -8.14861670161804
H         8.75924569858253   21.74750509926798   -9.12960652408628
C         9.98865476005909   23.32518948540105   -8.28450682148965
H         9.86348146254915   23.93950839227580   -9.17620752906075
C        11.29778880632102   22.53845885672098   -8.17224423989335
H        12.17945838320191   23.17439645819698   -8.10919677217353
H        11.41889944151644   21.80526609300576   -8.96688056003377
C        10.92201647411640   21.88480231093298   -6.83959869114859
H        11.66688589428514   21.21898824571385   -6.40504467480964
C         9.62065835606164   21.17005431904546   -7.24514255742978
H         9.00042121023720   20.88309551650987   -6.37022007069050
O         9.86818506951386   19.99843812105620   -8.00964125560579
C        10.21442444374277   18.86670175202516   -7.25625827865448
H         9.45104212368368   18.64204142583824   -6.49917164192599
H        11.18075628072681   18.98222290049416   -6.75208869398412
H        10.27911545660423   18.03893524209199   -7.96001881238833

