48
CSD_code = QEWHIK | q = 1 | S = 0 | Stoichiometry = C21H19CuN5O2(1+) | MND = 4
Cu        3.22195399283258    0.96817670487655    3.82833816477827
O         2.86507100560701    2.45012348369088    4.77409457595757
O         1.63557708405104    4.26534886738228    4.98223173239851
N         3.84835760315074    0.12462615903935    5.44143026284508
N         3.69210608471857   -2.04885153826617    4.47271392724883
N         3.83036880998241   -0.41770707584390    2.76420533513880
N         2.17917267196104    1.90983521805834    2.39142816033333
N         0.57231307846867   -0.37031644702572    6.18493732745492
C         4.19522361780700    0.86656902286938    6.50317326634710
C         4.55091278926860    0.30578730657109    7.70129970158351
C         4.53767318264280   -1.09069777209101    7.81797782825443
C         4.21303825838097   -1.84623272347151    6.73020637134609
C         3.89101248582440   -1.23028279808448    5.48970185896612
C         3.72044000219346   -1.69823603191655    3.20074577326198
C         3.70000952592017   -2.75354428994591    2.24659955261295
C         3.88671582272190   -2.49079301418222    0.92465649607290
C         4.11821426056260   -1.16423896546504    0.51977973432954
C         4.07173420528663   -0.17434265731699    1.45940391223470
C         1.23701736689688    2.81735487597579    3.08633638759020
C         1.93873626464762    3.27422466710692    4.38194891351779
C        -0.03981539794587    2.06091476087507    3.48166014739905
C         0.32705219519600    0.88727867211871    5.72898714242871
C         0.25405069977261    0.88606641123608    4.35888690966242
C         0.46200307548695   -0.46773389614901    3.94249702863244
C         0.45692493843572   -1.12027181949960    2.70638439537107
C         0.62426796100132   -2.48707178605307    2.68001154201538
C         0.79879843968874   -3.22154610438906    3.85511754595748
C         0.81404170520287   -2.60668331366171    5.08947393426501
C         0.64025286163011   -1.22997533426447    5.12425507369846
H         4.13620850372119    1.93826781585012    6.38184573864406
H         4.80681161118902    0.93936974563890    8.53332120282928
H         4.78803918098946   -1.55905828061893    8.75767413452385
H         4.22828974982023   -2.92309804135030    6.73361622831376
H         3.55728908158840   -3.74653858565547    2.63641643906386
H         3.88884996209241   -3.28504050771855    0.19463944391033
H         4.35191906230720   -0.92471822014387   -0.50382735080983
H         4.29314144571186    0.84831638471327    1.18968447058823
H         1.66749939513322    1.27560004276435    1.77282246152470
H         2.82292304024635    2.46241668007760    1.82373124857540
H         0.98092369645181    3.68072391658448    2.46442054370462
H        -0.68700275564817    2.76212579524086    4.01095888190534
H        -0.56088073760010    1.72953502841644    2.57987649197938
H         0.61418936763303   -0.63771321754861    7.15441197694633
H         0.21202918298518    1.71381002523785    6.40360218450501
H         0.28860294935061   -0.57556338857131    1.78690743294826
H         0.60329680364232   -3.00698548649800    1.73451832962576
H         0.91234006048641   -4.29188227205536    3.79390537592005
H         0.93940580850427   -3.17494801653683    5.99729176359533

