67
CSD_code = QEWJAG | q = 0 | S = 0 | Stoichiometry = C26H28Cl2N4NiO4S2 | MND = 4
Ni        2.71730003206401    8.58404455557731    1.37010619723771
Cl        1.11872840283365    8.37267440170495    3.49868799188861
Cl        2.55334333685870    5.11886599830725    3.27617006896101
S         1.58330904976478   10.05542824711966    0.13750570131028
S         4.01025365515194   10.18260068069407    2.05014487963214
O        -1.80457696640216   10.03361176234971   -3.27010548476715
O         1.61773557029691    7.11493218444840    0.73321756324505
O         8.37331451178078   11.38312421993712    3.55724326869468
O         3.82499808348308    7.29755848225242    2.19310521786067
N        -0.43586301666962    9.76093692535450   -1.48505329196883
N        -0.33409077682395    8.17496421693705    0.16681868433279
N         6.36464596460534   10.43851681783205    3.07660535577436
N         5.59173350830334    8.30893704960611    3.28165350020830
C         0.19753795155705    9.21546372376466   -0.44930508053545
C        -1.62880331812031    9.20616967539261   -2.13799791407348
C        -1.25262641676635   11.29966858499186   -2.99232643714491
C        -0.04549787897455   11.00901741456030   -2.09876650550241
C        -2.82576916776176    9.28410748776917   -1.18521493821801
C        -1.39551957970759    7.77940597686973   -2.62641568297911
C         0.39902929723771    7.34636255237957    0.88696916853339
C        -0.32419555668221    6.64895467600508    1.99396208483237
C        -0.00818689142472    7.07190535233713    3.28449844582695
C        -0.59492603498945    6.47308192721899    4.38636698504933
C        -1.50007907394564    5.44280698436457    4.19415671505141
C        -1.82517736390033    5.02153493472878    2.91559555646106
C        -1.23949225055153    5.62526999786687    1.81580624545051
C         5.40263995440750    9.54031895206039    2.84041634798024
C         7.67975573549094   10.15520112298668    3.66709659012998
C         7.43501696920243   12.43156985480602    3.51485734930516
C         6.23509552469522   11.84468288693740    2.77123385770529
C         7.51695494802629    9.73583288188024    5.13087572560128
C         8.44819314524377    9.11851682591152    2.85111699856062
C         4.77209756312091    7.29817954633880    3.00558561207477
C         5.08465859431359    6.04590575036728    3.74869550719838
C         4.15102492316560    5.01773019918110    3.91334774741426
C         4.48726086993365    3.87274369007694    4.62464319637373
C         5.74912683571629    3.73272547139308    5.16880793808256
C         6.68480157080508    4.74383810262515    5.01305461001295
C         6.34984404080531    5.88456942522718    4.31333262804668
H        -1.98048536806883   11.93599974560138   -2.47021728651637
H        -0.98850175632718   11.76154885836147   -3.94340299641956
H         0.87384640232223   10.87622007873463   -2.67943862426672
H         0.12708627040526   11.77687362911471   -1.34179915651961
H        -2.62269970516986    8.67921616284015   -0.30722685668555
H        -2.99534023339519   10.31269452600257   -0.87684503598011
H        -3.71288847292872    8.91589937535674   -1.69196496168181
H        -1.26212791835621    7.11706143931084   -1.77771023505199
H        -2.25396068018517    7.46329305071983   -3.21100958816007
H        -0.51070601457380    7.74698991938826   -3.25687661261720
H        -0.33813813373098    6.80893030354249    5.37799909969813
H        -1.95285382903218    4.96793358078051    5.05117443698689
H        -2.53291994661411    4.21910725745776    2.77364080136941
H        -1.47915254222756    5.30137806423556    0.81470423977573
H         7.89878578454224   13.27182109196541    2.99852099472473
H         7.15060468448318   12.74230177280932    4.52989957201274
H         5.27869428642060   12.23379072217671    3.12584603163512
H         6.29986282173975   12.00856527138203    1.68988649627805
H         6.90733077411619    8.84020162114678    5.18358989789171
H         8.49508531479099    9.54802946234139    5.56371224802360
H         7.02992398303587   10.52924475416754    5.69247679012306
H         7.88941578853509    8.19047090720722    2.81180875572595
H         8.59621799531899    9.49347271423720    1.84171134991646
H         9.41887391878347    8.95178169021172    3.30749863643997
H         3.74762204090525    3.09655829040631    4.74127971794620
H         6.00119200575463    2.83577907500189    5.71402697581124
H         7.67262491793102    4.64162745899270    5.43559171625792
H         7.06791186538578    6.67764963634829    4.18583118965611

