61
CSD_code = QEWNOY | q = -1 | S = 0 | Stoichiometry = C20H32Cl3N2O3Ru(1-) | MND = 6
Ru        1.70379809541211    7.08851085771926    2.81565149443445
Cl        0.71575381918442    5.04390777695205    2.11164007780135
Cl        3.19140457668821    5.90626875851982    4.22359549731782
Cl        2.89319245980862    9.14356851485630    3.17849888197577
O         0.08982027827361    7.33942966126112    5.11851602301883
O         3.03813264037813    6.74407450024753    1.43183312577206
O         0.51562578757621   10.82029594694318    2.20055387916125
H         1.41002134026525   10.46509934308925    2.38931424046777
N         0.71222837173168    7.26785348588450    4.13653145202329
N         0.60381122076590    8.12401110346465    1.32253844247290
C         3.20659645334279    7.06209785029380    0.20946609721342
C         4.37168188973198    6.62481959183557   -0.50482537137753
C         4.51872767952777    7.01042300162764   -1.81120471708866
H         5.39506024905311    6.68764271845968   -2.34879669090762
C         3.59046096001503    7.81133103894127   -2.50550103714161
C         2.47193627588384    8.21655415864119   -1.82826088567310
H         1.71917163721167    8.82735019303011   -2.30308346168337
C         2.25114100692227    7.85904037336241   -0.48413730280579
C         1.05524794280100    8.31919263955040    0.12978107740648
H         0.43152606785699    8.92383588805065   -0.53716283792169
C         5.39157613393854    5.75724779143472    0.21906010089749
C         6.57184999311599    5.36449434768150   -0.67790250905832
H         7.25945629496935    4.74207899519345   -0.10782099189341
H         7.11894451712885    6.24215913522288   -1.01809069449879
H         6.23846813311678    4.79078919055329   -1.54112526703066
C         5.94793049838785    6.52891916786002    1.42381601065933
H         5.16344630326880    6.73503217256624    2.14621416636234
H         6.38237661444833    7.47509899751928    1.10287952570033
H         6.71574219620068    5.94065561432634    1.92313878829758
C         4.70922508117157    4.46725486789954    0.69568789395774
H         3.91544444851618    4.68751216341471    1.40375955551588
H         5.43251497967228    3.82334747133438    1.19267477669901
H         4.28021513644948    3.92873854350004   -0.14870815791747
C         3.87593309725097    8.17732561439161   -3.95488611354134
C         5.20159182861213    8.94807917130545   -4.03056129738238
H         6.03089246426743    8.34437533031019   -3.67272669737010
H         5.14628615806543    9.84537457661840   -3.41786577519234
H         5.41148832478484    9.24125076453825   -5.05835344728284
C         3.97279889513732    6.89391919247946   -4.79197524704906
H         4.16225150113924    7.13610041639868   -5.83684525313923
H         3.04096060081185    6.33582942275424   -4.72843858052175
H         4.77584012547694    6.25254893675097   -4.43968829177688
C         2.78095653309503    9.05890594693523   -4.56249845314514
H         3.03457468100407    9.29765759133219   -5.59457432609392
H         2.68520132054328    9.99262184653992   -4.01338218934489
H         1.82229657338822    8.54534084577988   -4.56085770701522
C        -0.65890341181032    8.75498761137884    1.65251028451048
H        -1.04134514916810    9.25440736812084    0.74682571248371
C        -0.41759594248151    9.89307728139189    2.67633790841990
H        -1.35391226610314   10.44183969157661    2.81032351721019
H        -0.10606913014278    9.48376680272786    3.64493858889660
C        -1.70531689899384    7.70560110048370    2.07552327823425
H        -1.27532668657201    7.06155822071883    2.84884027009080
C        -2.03688894975964    6.81895826697762    0.87514045811242
H        -2.43883856647324    7.41191725606981    0.05416985765497
H        -2.77227694895326    6.06959211389259    1.15679525312687
H        -1.14455851362691    6.29676496636592    0.53988447779829
C        -2.97616985174711    8.35062908067146    2.62315684688981
H        -2.79092970387778    8.84380292459702    3.57307680899730
H        -3.73082588022800    7.58361261396596    2.78309788928909
H        -3.37204328643986    9.07961918368338    1.91790104498806

