70
CSD_code = QEWNIS | q = 0 | S = 0 | Stoichiometry = C33H29Cl2N2O2PRu | MND = 6
Ru        1.02973936895861    4.60211931816924    3.82772098967693
P         0.88030800125651    6.14806241402661    2.04643862876603
Cl        2.86900833180523    5.72510139671791    4.84284018721316
Cl       -0.47349160439804    3.20753312606636    2.63221172956757
O        -0.85659415249098    5.94108483099421    5.45547664464719
O         2.42210781377829    3.78813484680851    2.68007074148344
N        -0.10373702556481    5.38252137793451    4.76616122543448
N         1.35638005039570    3.04634358519504    5.15720576388317
C         3.42659291984631    3.05620914858232    3.01594301061601
C         4.49037995072940    2.88426923171618    2.09766646257938
H         4.40660857000011    3.38152737792860    1.14332029275213
C         5.58942680229391    2.13114635471694    2.41329206028188
H         6.39442340409083    2.03514794300096    1.69876410441645
C         5.68318237043502    1.48381374171827    3.64863989617983
H         6.55685760342496    0.89733304434760    3.88725463782470
C         4.65009783897977    1.58934565512030    4.54202093094055
H         4.69821805188791    1.07682246405600    5.49302785020795
C         3.51024185847687    2.36336466387551    4.26012545553347
C         2.43578901907659    2.35007121183539    5.19307582834390
H         2.54071054178767    1.62265356999751    6.00194139966767
C         0.35923837443645    2.80059348105494    6.20402538478652
H        -0.59967962413589    3.18788179043209    5.82857565637950
C         0.76388091088135    3.59563822935301    7.44684071283351
H         1.69418605303121    3.21409915879776    7.86189633173080
H        -0.01925399931476    3.54708568221913    8.19858098647668
H         0.92589956294214    4.63943928461908    7.17594609607174
C         0.16693293667521    1.31117398493118    6.42058550260997
C        -0.27010716554990    0.56016213592755    5.33212552557737
H        -0.46605198980787    1.05617215496194    4.39162674591680
C        -0.45329795341888   -0.80421911792244    5.44827182874727
H        -0.79069554278096   -1.37386601099552    4.59549287819323
C        -0.20889891455682   -1.43713551445681    6.65631774897274
H        -0.35285584242702   -2.50325937053048    6.75010384395833
C         0.21638387819198   -0.69598516819908    7.74353721741751
H         0.40431840299462   -1.18161062627712    8.68998454830864
C         0.40662614737349    0.67184519769802    7.62816475311095
H         0.73764585848085    1.22979676394520    8.49016134557446
C         1.72270432965706    5.54430301053000    0.56798284173143
C         1.01359316067846    4.85833900182113   -0.41331708057602
H        -0.05255527013964    4.71505336424541   -0.30403523825065
C         1.68245679217894    4.35200325624311   -1.51318080119607
H         1.13427131852852    3.81666896926625   -2.27425641971553
C         3.05194480168005    4.52319635454957   -1.63549810660689
H         3.56994405017712    4.12907627859910   -2.49754816390776
C         3.76278175612571    5.18343582604466   -0.64487531457029
H         4.83363312908046    5.30054288480889   -0.73359433281519
C         3.10531281993069    5.68338888038983    0.46437411609657
H         3.65544695139342    6.16727752256973    1.26130894299770
C         1.56034071589816    7.80496192045285    2.36646869835992
C         2.20493939638338    8.55910462116815    1.39140480591012
H         2.37884200767617    8.14743974431059    0.40693927841404
C         2.64162383498433    9.83839104350293    1.68569955090576
H         3.14947178071656   10.41636549225949    0.92739253343097
C         2.43359638059942   10.37564598257663    2.94498004416657
H         2.78375092400899   11.37180643164766    3.17091446712557
C         1.77898411738934    9.63330218829629    3.91411266622699
H         1.61542284086869   10.04812569773640    4.89711853975016
C         1.34078770107247    8.35461721687290    3.62613277178153
H         0.84140493280133    7.76969089937028    4.38792269351995
C        -0.78498005423532    6.59828914631107    1.46212969872017
C        -0.89341419005527    7.43764297140440    0.35502379462143
H        -0.00044100521664    7.77354742125268   -0.15332204179736
C        -2.13777616023735    7.83416780190958   -0.09366147460657
H        -2.21726061864318    8.48093414138086   -0.95502089432699
C        -3.28204398312191    7.40321928213167    0.56057677452563
H        -4.25383718824367    7.71475442231718    0.20761815858177
C        -3.17769434198239    6.57141262084788    1.66153318742827
H        -4.06672752784594    6.22969280175155    2.16963857723346
C        -1.93270036432023    6.16922240254688    2.11563225994575
H        -1.85914384560721    5.49526304257424    2.95867052020031

