77
CSD_code = QEWROC | q = 0 | S = 0 | Stoichiometry = C36H33ClFN2OPPdS | MND = 4
Pd        1.07333041963575    2.81337533578898    5.12996926862373
Cl        1.92913606470685    1.04763268932172    3.98178896171093
S         0.08524124348202    4.60621785716550    6.21963155738490
P        -0.00024836643919    3.14263933710790    3.23211897528470
F         1.79935073047236    1.18432984087964   12.64511883847610
O         2.15023427677565    2.21398116156419    6.81032747694915
N         1.45301049153739    3.73503088268349    8.39122972218818
N         1.08624158027795    5.96184149497219    8.25090567241043
C        -0.94588743785518    1.64139132536135    2.86548218301928
C        -1.45061648201346    1.00379006056258    4.00020738915730
H        -1.22649778425870    1.41762754408758    4.99223217393166
C        -2.19766408733121   -0.14797286262256    3.86020007572936
H        -2.59114069231043   -0.65091587789291    4.73128025266045
C        -2.43246824901773   -0.66995531775492    2.59688936592080
H        -3.01057725288803   -1.57712226680714    2.49441058743823
C        -1.91924681803354   -0.05593666547948    1.46257531978141
C        -1.17446089590847    1.11015626779703    1.60720195145687
H        -0.75418314110400    1.58605816801391    0.73348155335115
C        -2.13330364190155   -0.64325254528173    0.10110467702253
H        -2.35203088488650    0.13593124081903   -0.62625808918168
H        -2.95053779764542   -1.35997720392021    0.10887748873429
H        -1.22922419450929   -1.15850243974874   -0.22315872626370
C         1.13320379660554    3.61049388355156    1.89847792852974
C         0.70165549266434    3.87777005952431    0.60250274001402
H        -0.34660801841575    3.79515877469896    0.35204380082009
C         1.62473976604048    4.27019266976818   -0.34845647553853
H         1.30326094683638    4.46973102049677   -1.36041756055229
C         2.96118947033968    4.41475878718140   -0.01062526048739
H         3.67218631976194    4.71455708997446   -0.76721319791894
C         3.39824432357397    4.19223043982676    1.28924723016960
C         2.46694987705509    3.79734634292052    2.24139711898249
H         2.78349997135634    3.61773560921396    3.27598284585090
C         4.83414841194402    4.36336519638208    1.67579476404180
H         4.93029375298254    5.13177533357553    2.44183769775164
H         5.44183954917625    4.64485132171491    0.81979809514573
H         5.21891470157784    3.43321271146824    2.09070209284636
C        -1.22416103939342    4.48578897110071    3.15173860773671
C        -2.59375060894243    4.27792598820970    3.05138695228792
H        -2.98570013798549    3.27401933002318    2.96742612682865
C        -3.44518007222846    5.36865093097539    3.06229356385329
H        -4.51198284966812    5.21644497369964    2.98408105045536
C        -2.94009182813378    6.65246093861090    3.17760686383067
H        -3.61796969047464    7.49410931365962    3.18981419934757
C        -1.57178326414081    6.87447140986019    3.28417850291328
C        -0.72427193096338    5.77783204892877    3.27277549240349
H         0.34656354976131    5.91868261802044    3.36934052961753
C        -1.00914968151720    8.25714211730345    3.40020892134328
H        -0.46817815864998    8.51785144079889    2.49075569643749
H        -0.31115428720189    8.31069086314990    4.23321045960594
H        -1.79773585276233    8.98865466294741    3.55534272546041
C         0.96279090351847    4.73418759959443    7.69729888192581
C         1.82655314888033    2.53428713902334    7.97582435829014
C         1.99393181037039    1.52285008967769    9.05283704333400
C         2.33566299431305    0.21971618602217    8.69898535772947
H         2.47067291957515   -0.01596479777116    7.65341868874887
C         2.49765290510594   -0.74745479340793    9.67351553963179
H         2.76327088174194   -1.75570636195158    9.39460618330630
C         2.31925551931486   -0.42995918998790   11.00996936951665
H         2.44114296017701   -1.16701691171364   11.78820399231614
C         1.97473514127390    0.86909040828494   11.34217270671605
C         1.80704209978607    1.85373900228152   10.39058335496419
H         1.53846643638919    2.85730902270326   10.67599849499427
C         1.93914702034159    6.10832045265609    9.41309112785428
H         2.99133495189345    5.97528319578181    9.14931162280962
H         1.67566627776365    5.34527409213271   10.14634873464388
H         1.78843480635357    7.09568691658370    9.84334033637638
C         0.45133455418170    7.11166149012066    7.73764421088221
C         1.19439317558674    8.26693408498720    7.51560643149018
H         2.25746538454383    8.26662988122122    7.70476912513142
C         0.57513707003992    9.40843270326307    7.03978114518735
H         1.15989345707881   10.29990850605065    6.86687647026968
C        -0.78454769614764    9.40733779187886    6.77780043027876
H        -1.26347370022141   10.29898462153584    6.40193277918689
C        -1.52620314503268    8.25908023959846    7.00098332513188
H        -2.58716145669750    8.25117653165489    6.80281526688935
C        -0.91709302494763    7.11750460825272    7.48654409542660
H        -1.49983498551934    6.23043461723355    7.67609273913403

