79
CSD_code = QEWSUG | q = 0 | S = 0 | Stoichiometry = C16H42B18P2Pt | MND = 6
Pt        0.38131847830654    3.09592021482737   17.01560954580928
B         3.52732893895895    4.27246146257288   16.13693378789803
B         2.96344161992195    5.91677760535598   15.71541464277935
B         2.59972789295391    4.51981375398953   14.66629943051159
B         2.14071829270706    3.20107842060726   15.75920989986843
B         2.49588364872413    3.68653184862997   17.46473381473553
B         3.06282907671743    5.38288855990952   17.41271324442576
B         1.35108579862685    5.81642492407294   14.97265230307495
B         0.94138889617673    4.08271753974166   14.83927553373687
B         1.46294721669719    4.90770745755661   18.00779166148313
B         1.67671227640060    6.31960726027486   16.79789459109855
B         0.00084189463963    6.75648630913098   14.31872217530891
B        -0.39140024785916    5.16636591374850   15.01775643247930
B        -1.12963309247133    5.62864640552975   13.50407644691819
B        -0.14969747222846    6.71427143294355   12.50366652704448
B        -0.50511886916764    3.98910026246552   13.65513548181421
B        -0.31173782583600    4.94612087694141   12.10004997510955
B         1.22310185515836    5.94025917543227   11.81111808844520
B         1.41660646382613    6.88271573545546   13.35247761689450
C         4.35790349737911    1.12382135315301   14.80735344595537
C         2.28455735573793    0.14056999924634   16.47590498390634
P         2.59423293793051    1.44685347163341   15.22612004539770
C         1.70225295101246    0.90218405044107   13.73717539224533
C         0.48493519466337    0.23629693539564   13.83252238872837
C        -0.25240468768379   -0.04000990932539   12.69497897658340
C         0.20934390564239    0.35486572990457   11.45083671834048
C         1.41625822921642    1.02727512590767   11.34613864803223
C         2.15470390139191    1.30267104889368   12.48209355064665
C        -2.34315459237376    1.81082779945973   18.96950666491098
C        -2.06638273354022    4.60462735929617   19.10831589811116
P        -1.03354780949793    3.11028646508430   18.82703057261691
C        -0.19158405529519    2.82824553707264   20.42016954243270
C        -0.34135702465585    3.60818149192455   21.55751911812727
C         0.37496466927216    3.30958092222364   22.70453751011869
C         1.24418505008517    2.23314469031990   22.72646908254294
C         1.40599381805274    1.45443975798212   21.59094277234906
C         0.69631671975051    1.75674174937084   20.44624117199633
H         4.64370073173344    3.88431820486818   16.02155349865359
H         3.69462097688085    6.76453803790566   15.33538620703519
H         3.15199553580792    4.30650411732618   13.62874330152918
H         2.97331555534024    2.89233180552180   18.22078298696117
H         3.86984153201544    5.81871967513297   18.15806316915640
H        -0.52537902642901    2.02185046227096   16.30168748029910
H         1.16392470571054    5.13894544803438   19.13641468909679
H         0.69445531703127    5.60275137827005   17.24208491828302
H         1.45691907587893    7.43586746061367   17.11555468317944
H        -0.35764287242136    7.72683086341649   14.88787858661804
H        -1.09217861720616    5.15576654603988   15.97634180339731
H        -2.30352759418130    5.74462661245528   13.46668673163002
H        -0.69944734986429    7.59446599496558   11.94230605676566
H         0.66419249615463    3.47496497595102   13.67437067494083
H        -1.25312859058060    3.07458179096826   13.69086795483034
H        -0.90318212546638    4.58189461799494   11.14357847823627
H         0.97205242135607    4.66925263584830   11.85644373156385
H         1.66740151841348    6.20851578498882   10.75123942670162
H         2.15238476250137    5.99574592532804   12.68552153104114
H         2.05925494323566    7.87140356582727   13.35388724069735
H         4.94524568861090    1.19805601062729   15.71872722414856
H         4.72602807349550    1.87415445541541   14.11429047298234
H         4.48870609171206    0.13522529736743   14.37333125050275
H         2.98593459623774    0.28102144390774   17.29487437015878
H         2.41017905933700   -0.85622246282056   16.05877451727825
H         1.27648883952971    0.26070342523945   16.86806024353418
H         0.10610957787322   -0.05093727881686   14.80023714058054
H        -1.19602936334176   -0.55703375593968   12.78064782666974
H        -0.37091176213716    0.14616993970878   10.56524068833338
H         1.77741869530320    1.34250101727978   10.37840932719431
H         3.08978074373995    1.83697538642216   12.39443229035994
H        -1.88237981699933    0.82669764627533   18.93181487957398
H        -3.02161327444779    1.90612037674485   18.12503727173312
H        -2.89745358311314    1.91190236025155   19.90164510189130
H        -1.42675600468061    5.46726485671440   19.27504189144887
H        -2.74003058200724    4.47012034245108   19.95289761586633
H        -2.65481170856408    4.77810063863161   18.20925175726790
H        -1.00884341019708    4.45614042432263   21.55603568146460
H         0.25503801593177    3.92329861577491   23.58575207061426
H         1.80101238925876    2.00588160033863   23.62352537202192
H         2.09155292840034    0.61950634937852   21.60215457543862
H         0.82799924079517    1.17347866980841   19.54363759784561

