60
CSD_code = QEWTOB | q = 0 | S = 0 | Stoichiometry = C30H24N3OPPd | MND = 4
Pd        9.55733832061501    1.21427211986435    7.15488447815163
P        11.30459400946282    2.29847016063594    8.20413751578880
O         6.30539375405782   -3.38175217063632    7.13448926376586
N         8.57227581197093    1.25296815897911    9.18105617020835
N         7.12529474695424    2.81668770273259    4.94991751549846
N        10.89107225930806   -1.69740784460136    5.49740788481761
C        10.92003438104082    3.03985464708445    9.83534070439572
C        11.65639547025945    4.14428591519291   10.25648847571405
C        11.45487278801479    4.70039692666881   11.50500956101927
C        10.52800198765744    4.13707754059778   12.37025025171128
C         9.79612551498774    3.03691818145642   11.97225328152975
C         9.95750963029578    2.49182686819890   10.69730807571962
C         9.14104067311004    1.34394901762309   10.31531310319620
C         7.97354350138825    0.05050221051871    8.76347338084384
C         8.78247448412554   -1.08643255364409    8.60135610351965
C         8.26074137156514   -2.24350873016931    8.04879437460651
C         6.91535258470790   -2.29996309477225    7.68997388971597
C         6.10369682209317   -1.18014478137919    7.89448462020459
C         6.62341647382561   -0.01349403590762    8.41446159924541
C         7.08428123053418   -4.52168250976047    6.85704704902491
C         8.38236456319802    0.65816631040997    5.51023561451365
C         9.76394474597454    0.58543108522072    5.19838511218364
C         7.68285986530848    1.84058864673024    5.20504041958036
C        10.40202530079446   -0.66268445377209    5.36475891769241
C        11.29360032206351    3.80864990608249    7.17114273646299
C        10.03756400982696    4.19340058127982    6.69715332393716
C         9.91115911420591    5.29952531199519    5.87915458627308
C        11.03836901107291    6.02714886237515    5.52626717403506
C        12.28520467638345    5.64968778954277    5.99556601668429
C        12.41862300475629    4.54253849864296    6.81731438088669
C        13.06993751022829    1.87921889394916    8.31254727721749
C        13.83726786455705    1.91245626528468    9.46979611648446
C        15.16296585249936    1.51458642076922    9.42604011757242
C        15.72352641344516    1.07421115007237    8.23904055326757
C        14.95345901266439    1.01458377686519    7.08689160142628
C        13.63022458797456    1.40484855054356    7.12690278222121
H        12.39014221862160    4.57174783362836    9.58726200293781
H        12.02445389967355    5.56594524440725   11.80898887754826
H        10.37784248414068    4.55808946492783   13.35304162333286
H         9.06668729927870    2.60009662084701   12.63931294507587
H         9.04019707713377    0.55123907745072   11.06624094355146
H         9.83725489394249   -1.04363576303012    8.87916395514256
H         8.91723512679919   -3.08501108929874    7.89760134552553
H         5.06371603824651   -1.24428300114744    7.61659576237291
H         5.99912685614111    0.85856146221694    8.54465195834444
H         6.40772561606651   -5.23081022410199    6.38295495369936
H         7.48786370370586   -4.96449628611976    7.77336572601827
H         7.90591481481012   -4.29003215299187    6.17206509041791
H         7.79815673510037   -0.24804772963801    5.67739623695364
H        10.24176304099863    1.33517869596551    4.56199483265877
H         9.14740517212305    3.61569680464693    6.98477785079699
H         8.93843236103471    5.58324725171082    5.50696804176681
H        10.94457734229432    6.88639152352153    4.87887982703943
H        13.16216850496266    6.21582066652979    5.71637018860086
H        13.39708989349878    4.24075175463712    7.16648585567440
H        13.40327214583652    2.24621281758244   10.40190592210788
H        15.75968885657545    1.54569798876752   10.32617435993681
H        16.75799868125725    0.76549087962562    8.21312923482454
H        15.38419732796674    0.65482949133890    6.16434685138168
H        13.00613823892000    1.34323734366689    6.24154158538316

