20
CSD_code = QEWYEW | q = -1 | S = 0 | Stoichiometry = C9H5O5W(1-) | MND = 8
W         0.12791474976678    1.40260013924496    2.64263745146253
C        -0.04630115067809    2.84134528512482    3.93986367815161
O        -0.14843829569970    3.69662452774177    4.71621396832417
C        -1.62276209408845    2.05283489183128    2.09587048930249
O        -2.66030559520410    2.44890746829831    1.76361829511994
C         0.70029212179817    2.87222671988940    1.51087354364049
O         1.05176306729297    3.74492038630405    0.82917446855774
C         1.41628515814236   -0.17073804991262    3.84542573315005
C         2.00635011752847   -0.06295307973598    2.58485784044371
C         1.07472758075310   -0.53379075173014    1.61033694433398
C        -0.08530684821325   -0.93625800369141    2.27464898642604
C         0.10917864150993   -0.73620203979239    3.67881830349067
C        -0.77728212506083   -1.17613203382392    4.71695625631131
O        -1.80915784573102   -1.81318392948102    4.58388985385401
O        -0.32897430738952   -0.87436223903304    5.97954562569914
H         1.89863655008019   -0.00698113761302    4.80017657008636
H         3.03562655155840    0.21010002127742    2.38395320372928
H         1.28739983994876   -0.67203859584502    0.55711223415500
H        -0.94101102337751   -1.43865885577012    1.84245472246018
H        -0.99823509293790   -1.17546072328506    6.60937183130059

