31
CSD_code = QEWZOI | q = 0 | S = 0 | Stoichiometry = C9H16Cl2N2OPt | MND = 4
Pt       -0.98964078584146    1.63288475905010   16.83011682731822
C         2.40646074567118    5.31963236145335   20.52688731670806
H         2.18453843907744    5.08773362872283   21.57489493976792
H         3.47416055855485    5.11548199887458   20.35648150862253
C         1.57784830462753    4.42255630188810   19.64440696621875
C         1.98929367095713    3.12879016458837   19.33705690746427
H         2.91760137729367    2.74049185447938   19.72609769854584
C         1.20213239547022    2.34070425893578   18.52280205030387
H         1.50586339321521    1.33529185875424   18.25742100529133
C        -0.36480355770971    4.00558742311279   18.30714511314034
H        -1.31753103173167    4.31380414418596   17.89144230112652
C         0.36726114252799    4.85454766003967   19.11247912363451
H         0.00115939494842    5.84449315593844   19.33653711209152
C        -3.27111088122811    1.00362304069422   14.99641163136539
H        -3.95645294346990    1.19149724240774   15.83090575801350
C        -3.92288377910489    0.05212619404278   13.99660982788824
H        -3.24708536510718   -0.15108404096473   13.16726537446078
H        -4.83080486732477    0.49416865586465   13.59615289190914
H        -4.18670230003149   -0.89064334609128   14.47219436883202
C        -2.89535841083568    2.32972778638184   14.34460400520054
H        -2.40162931663350    2.97147645014074   15.08101454608340
H        -3.78140664186111    2.83964912909906   13.97740896366611
H        -2.21198755246624    2.16699794979669   13.51350163597421
N         0.04672541286215    2.77090932435270   18.00889184695366
N        -2.05076701197243    0.40128474695289   15.56474640474452
H        -1.40667162110402    0.16559364910940   14.80037240355545
H        -2.29528626604501   -0.46459359700362   16.05376280744632
O         2.12171815435180    6.68515625163927   20.37862424612399
H         2.32775392628675    6.95645957235213   19.47675024871829
Cl       -2.72788221681114    1.58553457700211   18.35039390247893
Cl        0.73578763343132    1.60821684420176   15.28002026635662

