71
CSD_code = QEWZOH | q = 0 | S = 0 | Stoichiometry = C28H40P2Pd | MND = 4
Pd        2.65057889104794   -0.00189959724040    7.16574743485884
P         1.00331515713123   -0.77997731543618    8.46829972170956
C         3.85337321173374    0.37037243739193    8.72243211402957
C         4.57859126435876    0.63700619206127    9.65909262540457
C         5.42583729898239    0.95230785476245   10.74914368622912
C         5.76473004192354    2.28104530959420   11.01602190133998
C         6.59419469074477    2.58947539780885   12.07572034217923
C         7.09906782804119    1.58352586790759   12.88450205337625
C         6.76818987981695    0.26257528547940   12.62658672183532
C         5.93901901632455   -0.05493329113906   11.56917278792693
C         1.32786359965728   -0.98683239718716   10.27469798896837
C         0.24428814756951   -1.68024532422706   11.08950137050133
C         0.31758878072340   -2.39433896017381    7.91745785152983
C         1.49232112565847   -3.32431280439087    7.63180017270906
C        -0.41419153160091    0.39507184922664    8.40473802539486
C         0.16177016394265    1.80243354068234    8.26038366388720
H         5.36818662981337    3.06455633842250   10.38412328251413
H         6.85093256764050    3.62104661384934   12.27443190896757
H         7.74831516672658    1.82824108694027   13.71288733506949
H         7.16071000421949   -0.52410461513130   13.25634903108993
H         5.68079235477909   -1.08539522816269   11.36547405308866
H         2.27783629719377   -1.52255180193408   10.36561353438779
H         1.50689378023031    0.02580256912767   10.65226488370200
H        -0.73542173650770   -1.24375228654614   10.90453362903723
H         0.19750453647424   -2.74185705931672   10.85863128012378
H         0.46311986493267   -1.57942860786251   12.15096202439104
H        -0.36754003852951   -2.81403914097228    8.65692007479603
H        -0.23337608086391   -2.20257966629797    6.99236817579637
H         1.15714061936142   -4.26482192531900    7.19874121956754
H         2.16743365153558   -2.83205266284940    6.91919691161801
H         2.04809594553350   -3.54151439302102    8.54378975781074
H        -1.01524193961927    0.14660274796821    7.52557190216313
H        -1.04050826475143    0.31377393350012    9.29694208397769
H         0.78247924953906    2.05303611446461    9.12298272117309
H         0.78474187383648    1.84455002560273    7.35200034132719
H        -0.62788195286927    2.54680405263228    8.17314347061072
P         4.29711156710057    0.77866110772409    5.86188119972104
C         3.97045076797790    0.98835160674243    4.05617180796770
C         5.05318175856320    1.68216959426734    3.24054967461808
H         6.03283982324240    1.24433816530912    3.42273248335131
H         5.10153062619465    2.74335037958277    3.47318244225967
H         4.83210406693606    1.58348271437305    2.17934088474809
H         3.02077953073592    1.52500800257904    3.96755698355181
H         3.78995179559496   -0.02354940257620    3.67731171574363
C         4.98477193304623    2.39192171179720    6.41366550927247
C         3.81107390776532    3.32251056282798    6.70147801771890
H         4.14750348745121    4.26221668578134    7.13531635620543
H         3.13623209527649    2.82997170163801    7.41414372947143
H         3.25464984313618    3.54129481669013    5.79026432999863
H         5.66947661347682    2.81184542716879    5.67391532340019
H         5.53660480269118    2.19885783228023    7.33796713878364
C         5.71457839136113   -0.39672020799582    5.92174007417784
C         5.13867362499754   -1.80406440154758    6.06639418857049
H         4.51551463314170   -2.05360231527677    5.20523458097993
H         4.51815157314365   -1.84655516947453    6.97640832819484
H         5.92821115435483   -2.54889027081773    6.15090406497041
H         6.31763909826463   -0.14900425569212    6.79974012688298
H         6.33908703839997   -0.31516387782159    5.02829641351857
C         1.45172811536394   -0.37233364207143    5.60546361791860
C         0.72411627118579   -0.63714614028921    4.67010672546858
C        -0.12199648642424   -0.95190964877880    3.57899770705758
C        -0.46025563548386   -2.28048541648741    3.31014109215728
C        -1.28877427421862   -2.58782938655927    2.24934904247014
C        -1.79320114110820   -1.58098712598979    1.44135996080009
C        -1.46275721670406   -0.26028357156455    1.70113599343310
C        -0.63462354347855    0.05613468627996    2.75966432100971
H        -0.37711151512435    1.08643614787250    2.96501216944425
H        -1.85494259611354    0.52712771355906    1.07205024566457
H        -2.44145675628822   -1.82483908150855    0.61194729698925
H        -1.54452630039995   -3.61920841086956    2.04872636316138
H        -0.06386714881961   -3.06469667140997    3.94122400717425

