78
CSD_code = QEXFAD | q = 0 | S = 0 | Stoichiometry = C35H34BO4PRuS2 | MND = 10
Ru        6.06250357379980    4.23137021062023    0.28208859139421
S         8.61617354733017    4.07193262898177    0.19646527816070
S         5.33989403383122    2.43958976670487   -2.34226119069936
P         8.10699915412821    3.23118539346141   -1.53689782891068
O         5.67117168359262    1.30686259146094   -1.50569608119592
O         3.97446144078002    2.89693404356889   -2.30580739074114
O         7.50903317740570    5.86229368335940   -2.90620384843223
O         5.30477456817450    5.61524711193786   -3.43352193924234
C         6.42510351920433    3.77422720385701   -1.91741881090110
C         9.27759869188493    3.71315706073914   -2.85378754741408
C        10.53103667718441    4.18471227744411   -2.49236540670722
H        10.77733014980599    4.26718279975100   -1.44275445206560
C        11.43394255212246    4.56046349554129   -3.47137726977520
H        12.40829513643213    4.93153428443266   -3.19040329206471
C        11.08429667915642    4.47003162229605   -4.80833811177388
H        11.78536045218035    4.77165231784706   -5.57250387223767
C         9.83036642847425    4.00204512475460   -5.16953624330534
H         9.55395868743662    3.93900727687903   -6.21207393876452
C         8.92533684130466    3.62218656580817   -4.19604679571437
H         7.93790407691369    3.27477174978633   -4.47350278560364
C         8.36103534154688    1.42931802322745   -1.44003849554211
C         8.66024892825132    0.68343686892420   -2.57283710648490
H         8.70860667059715    1.15769732713471   -3.54242937092806
C         8.89968219054530   -0.67402841729440   -2.45465658755934
H         9.12672814413353   -1.25398668431811   -3.33751750927550
C         8.84978580774043   -1.28793288475505   -1.21425706472954
H         9.03016849632999   -2.34947436288389   -1.12983996597543
C         8.58244739489387   -0.53673144657458   -0.08159494213620
H         8.56057499267015   -1.01085127893179    0.88893768514078
C         8.35103624522214    0.82071624033236   -0.19221758072702
H         8.17063589679923    1.42488969468726    0.68470116295510
C         5.65100141339539    1.93340615152748   -4.04775535237010
C         6.08570641409850    0.64658804047911   -4.30074207813243
H         6.22440665938780   -0.02430099838581   -3.46767990799157
C         6.32223579663223    0.25130017456739   -5.60774395815065
H         6.66438100756530   -0.75192949399718   -5.81359639314672
C         6.11222748401144    1.14318250468504   -6.64693709781394
H         6.29948697416894    0.83680873132630   -7.66553410231137
C         5.64510238449336    2.42284447161809   -6.38621016469405
H         5.46234058235499    3.10900649969050   -7.19968617961959
C         5.40589581163625    2.82069278166961   -5.08080875984689
H         5.02132531398502    3.80105300632147   -4.85152322938705
C         7.21501864054566    2.64083254456105    3.12316774907572
H         7.34598310887508    1.56768985511641    2.99690292193279
H         7.00606887186974    2.84459174731512    4.17356730286157
H         8.15006464162336    3.14160588014938    2.86354690131576
C         6.09118711977745    3.15237608002357    2.26554086816000
C         5.40947679630353    2.31140813018810    1.36496047980822
H         5.68781617897247    1.26977152915216    1.26556085218232
C         4.32212883652344    2.80117880671901    0.62816275485722
H         3.78054400010441    2.12249876697882   -0.01913228855703
C         3.84800526207098    4.12704301321001    0.77843438259258
C         2.59794759086787    4.58394772010083    0.06333619333984
H         2.29753769506650    3.78715689488804   -0.62457703421431
C         1.47108015239265    4.82172810414028    1.07408769027801
H         0.55110111252032    5.07432738711491    0.55236928639611
H         1.71962935428276    5.64111901284963    1.74561632224367
H         1.29446944454711    3.92848125171326    1.67058996604583
C         2.86590809436736    5.83525869046633   -0.77383382199155
H         3.65114250292369    5.62061539051769   -1.49659839467637
H         3.18150066868213    6.66910087119400   -0.15086013445855
H         1.96471808683876    6.12318863408999   -1.31074427396066
C         4.52118214928736    4.96152691172408    1.70787511719813
H         4.14511510237800    5.95898179933647    1.91106592543443
C         5.62588224731363    4.48270322764673    2.45010474835779
H         6.07641808365194    5.10642035234719    3.21767119447670
C         7.11741280830952    6.92982407605005   -3.64887348032240
C         5.76260567572119    6.78059222732805   -3.97275517277243
C         5.09471804361968    7.71475865977103   -4.73575453107682
H         4.05091696045955    7.59672330490821   -4.97671421952703
C         5.82947652649720    8.81052025089329   -5.16900116829240
H         5.34154138547853    9.56576247814861   -5.76616180163393
C         7.17214517583609    8.95708976281217   -4.85167574927391
H         7.70746659713659    9.82400157918381   -5.20805797052852
C         7.84605006914868    8.01679621360511   -4.08385325670302
H         8.88777533016118    8.12479730815560   -3.83022770955507
B         6.37994970403275    5.06625489765246   -2.75817346447105
H         6.34421496018950    5.65473448168109   -0.18105624999658

