81
CSD_code = QEXHEH | q = 0 | S = 0 | Stoichiometry = C30H34F12N2O2Zr | MND = 6
Zr        0.92685583170049    3.29232056894685    9.59376208886599
C        -0.97235621289004    4.27674496156155    8.86329415216116
H        -1.66524341007170    3.53464160502186    8.45158514118744
H        -1.51797709082797    4.87695925710880    9.60548230145856
C        -0.51574166363183    5.15406834333777    7.76732790624877
C        -0.23066742024805    4.62686773997098    6.49691947585996
H        -0.35800800247297    3.56547815385051    6.32352514798694
C         0.21309230259377    5.43532344169427    5.46940532410785
H         0.42374370561640    5.00294657858746    4.50149605619766
C         0.38630493188590    6.79723621858959    5.66868081860373
H         0.73471004552564    7.42708049121446    4.86388225678788
C         0.09529801440653    7.34010643026709    6.90862668101147
H         0.21048871968600    8.40267739559710    7.07106210938386
C        -0.35622394313483    6.53552361308016    7.93831701449729
H        -0.60299498887058    6.98558714803071    8.89139235351463
C         2.40540545958986    4.66996511429579    8.60885096374708
H         2.13035517051097    4.80984800646665    7.55917521471194
H         2.44083096881022    5.63183512345775    9.13222926826706
C         3.65456545763313    3.92536699042927    8.73238135481311
C         4.03968073043564    3.00377137112426    7.74123007724496
H         3.40290838674818    2.87719149439245    6.87320082099730
C         5.20785502295431    2.27590652679247    7.85568763326604
H         5.48110240664608    1.57504582364277    7.07953274004400
C         6.03744655570841    2.44629390493578    8.95542766061130
H         6.95410489825132    1.88171261066133    9.03955277948680
C         5.68825745944592    3.36652971789778    9.93254557281211
H         6.34030792550960    3.52304803030540   10.78064186371370
C         4.52193142740146    4.09938830231735    9.82407231043617
H         4.27610508017479    4.83148637440079   10.58275605956811
C         0.70639099228026    0.69498456621871    8.26965948431583
O         1.13917262743600    1.96273305981658    8.16039195789540
C         1.28139909498248   -0.14525555656061    7.10671587410412
C        -0.83351769542443    0.73383471195787    8.18162966269121
C         1.03773668137959   -0.00379674360937    9.63970856910606
H         0.12782516576756   -0.47944882697367   10.01155573713711
H         1.78444913213027   -0.79237735929706    9.46913570850462
F        -1.30271445493308    1.41837721261898    7.15119561966602
F        -1.24564064438876    1.40364090660852    9.30786297433492
F        -1.46688861888886   -0.44297382837377    8.21365637799550
F         0.93176542183489    0.32431589096180    5.91349174056720
F         2.61497080807639   -0.15599613262240    7.16484518754957
F         0.88887972231251   -1.43285344933870    7.15381843804265
C         2.98120289711287    1.11404804576294   10.40883018683244
H         3.36004023263771    1.94478530702691   11.00388178202278
H         3.21239702200066    1.31091431254842    9.35981990199835
H         3.49141723815015    0.18901160229023   10.71003260773930
N         1.52495139943756    1.00419588629594   10.57141346603042
C         1.16913346606363    0.76650541192928   11.98550412827232
H         1.86102811192594    1.37549435325411   12.56952934756609
C         1.36834413171782   -0.70332669849133   12.40306429084135
H         0.70924708708463   -1.35640700645736   11.82844461464396
H         2.39761100325457   -0.99585849392251   12.19235774193537
C         1.07086348554363   -0.92433623441092   13.88075645712048
H         1.23042360857590   -1.97362004848283   14.13300121445753
H         1.74612771547929   -0.32255063671814   14.49118525527065
C        -0.36926460905762   -0.52217649279464   14.16352825137654
H        -0.60695046729124   -0.67670143221280   15.21685171711317
H        -1.05134179089922   -1.13656739842674   13.57204449809338
C        -0.54460517144254    0.95111210205667   13.81526936595872
H         0.15965858150620    1.50822299136002   14.43397087796060
H        -1.55787081441980    1.26998440264783   14.06499708245520
C        -0.27150015360014    1.21826068644915   12.32251858641430
H        -0.95449159559821    0.58257910441438   11.74704825937367
C         1.28300811508059    4.21858683772873   12.38831965248097
O         1.82849511476904    3.57667005923942   11.34838020085050
C         1.14495290707367    5.70553298861996   11.97297130077228
C         2.23565544380104    4.17867756766448   13.61503432040651
C        -0.13081227154156    3.67921561112086   12.79279098882522
H        -0.11253430225582    3.37076432484868   13.84288357516730
H        -0.83606997236079    4.51110277714247   12.72063685702917
F         0.40850113153451    5.72149232431304   10.82345284060547
F         2.30637835697896    6.27064726839291   11.67104006797334
F         0.50866062868577    6.50857032236057   12.83078216809415
F         3.47450101815562    4.54503512777485   13.31144709623585
F         1.81426133313932    4.96586463919200   14.61852181573204
F         2.31620886225778    2.94280027689877   14.13369959884309
C        -2.05346904933575    2.75531825809781   11.77285524929440
H        -2.47327833319918    1.93575708688005   11.19735901061759
H        -2.28123951996769    3.68451340246486   11.25280328701569
H        -2.54679890671163    2.77106903795529   12.75291262669832
N        -0.59400793593119    2.61067653579129   11.89434923038018

