73
CSD_code = QEXMEL | q = 0 | S = 0 | Stoichiometry = C28H42P2Ru | MND = 8
Ru       17.78299612221633    2.60706672637347    7.91333418681614
P        15.79257988896823    2.94864200443030    9.05420697088473
P        16.85084574959686    3.81929511160613    6.23046975909458
C        15.08437343561225    4.22264226466178    6.65248184545314
H        14.76248953754779    5.14318284654227    6.15432804379910
H        14.48980895435614    3.38833676938761    6.27086960111345
C        14.91847571801109    4.33576943255807    8.16286433162219
H        13.85858582681269    4.36639905510079    8.43338828286667
H        15.38828302765630    5.25800190181910    8.51893452624877
C        17.45342559385946    5.46214204873541    5.66587208636276
C        18.32742686559633    5.56088976529233    4.58609121797127
H        18.59298371222561    4.67282259426687    4.02884832651806
C        18.84820207761681    6.78609257440481    4.21158979806239
H        19.52067458881985    6.84706309306550    3.36787557918712
C        18.51222401940253    7.93094745285989    4.91419157979623
H        18.91973072918065    8.88739631391859    4.62153096290564
C        17.65421726604197    7.84265416807739    5.99768949250018
H        17.39249118071834    8.73138751539856    6.55452657568531
C        17.13531405347372    6.61787204992079    6.37470381734474
H        16.47623341552627    6.56104177250293    7.22943430024380
C        16.66461399871755    3.07443175113645    4.56892821525769
C        15.62870516761779    3.39505262293031    3.69869984780979
H        14.86760300383635    4.10278958217720    3.99318739083869
C        15.57215154112642    2.81556513562184    2.44347075274980
H        14.76095554635734    3.06499194568601    1.77409799295648
C        16.55176808612164    1.92400324249529    2.03874234766465
H        16.50208148262548    1.47499509135003    1.05734469471424
C        17.59772849366469    1.61540831688341    2.89270007817419
H        18.36967920958190    0.92801049289770    2.57639234304315
C        17.65125090132579    2.18844335333498    4.14979569504960
H        18.46180641951032    1.96137873890761    4.82974711675044
C        15.96021488379250    3.79154099519794   10.72769613292779
H        16.45079002206522    4.73241969670954   10.44052773266403
C        14.29115916418963    1.83530518482258    9.32668257413784
H        13.58665226495030    2.43050970732640    9.91901432161322
C        16.92415133701351    3.04517232863899   11.64452653861559
H        17.24624245062428    3.69242364694678   12.45971905942092
H        17.79932737068994    2.72865005555810   11.08050967229650
H        16.45831241716782    2.16524686202077   12.08249575187036
C        14.67127355843830    4.13558862805385   11.46804425214049
H        14.20600195541010    3.24588230458943   11.88637990225452
H        13.95627516902425    4.64009164137656   10.82183033879857
H        14.90453620075027    4.80523297563845   12.29548988785399
C        13.60677193997638    1.46618794988266    8.00986171975670
H        14.33314083920668    1.17456198687406    7.25359489485960
H        13.02071550606293    2.29639607813994    7.62267118469552
H        12.92741589588448    0.62941209439918    8.17038521674347
C        14.63490675622021    0.57774164939065   10.11930312144652
H        13.72116967698576    0.05231795957496   10.39875459023134
H        15.17523873856754    0.82339727885671   11.03041144641583
H        15.24511517323776   -0.10210955604249    9.52935492593121
C        18.33810274419218    0.48452896740964    7.86481105500779
C        18.29804434573817    0.85779694817405    9.22951372414057
C        17.14445562874272    0.61286564969314    7.12021247280041
C        19.58630638073592   -0.06941436733951    7.22851529636275
H        19.54125518362483   -1.15861404737766    7.31355686577334
H        20.49195273201739    0.26272997105541    7.73273958800177
H        19.65064307377067    0.17669694788021    6.16964004776970
C        19.72138056306948    3.51498421769657    8.37967205544307
C        19.77207632362988    3.14052675287406    7.01437157960494
C        18.73790562875833    4.45042365448260    8.76987314916058
C        20.70806326003330    2.97885827456416    9.38425404438423
H        21.11032630788946    2.00974527011510    9.09521079711083
H        20.27968638391410    2.90907192846066   10.38328112976985
H        21.54332479162424    3.68303238200403    9.42903795903786
H        16.21905793430460    0.31599119635741    7.60654025771287
H        18.73684718162539    4.73560305799166    9.81993565382728
H        17.41264807458123    0.59015871317918    9.79958187254421
H        19.20979021866090    0.71548645297648    9.80449946649418
H        18.54538496343626    5.29682888235140    8.11103480413175
H        19.63095820562902    3.92948741273951    6.27595498726170
H        17.17398935417213    0.31279198812794    6.07484958289022
H        20.56398378586166    2.45363454427463    6.72502258660924

