68
CSD_code = QEXPUF | q = 1 | S = 0 | Stoichiometry = C33H24CdN5O3S2(1+) | MND = 6
Cd        8.27218526372621   12.47640028295081    9.03383317021951
N         8.69428368289084    9.04053030970396   11.31951802601751
N         6.65944440174848   13.70894724555194    8.02221869550366
N         6.61374677238695   11.03853739714987    8.56376715776127
N         9.77677437581425   13.88498719072429    9.94900907825947
N         7.61452577876562   12.75728020618661   11.18128670102613
O         9.75903787400316   11.12231804179469    9.62930983946215
O         9.29021486811336   10.38558849749332    7.60564588436703
O         9.33386020042398   12.95707924414855    6.82626457776368
H         9.50518549119578   11.99239615818014    6.89476856023603
H         8.98206397703132   13.09070992251158    5.94059363284806
S        10.19344596095646    9.46722730257054   13.40552715172051
S        11.31476066535395    9.05956266815175   10.67952498804074
C         9.81035544918693   10.25823731829720    8.72545305288662
C        10.55536982059195    8.96094104433372    9.04063010571900
H        11.36066083601764    8.79581379532075    8.32575296703266
H         9.86719912579735    8.11643283400257    9.00983329416845
C         9.91905030944091    9.18573504968621   11.68085576338809
C         7.84328869013366    9.10202342672918   12.38937889554728
C         8.47348964913305    9.31306211571050   13.63560344697817
C         7.75212008817875    9.34583997027380   14.81550619648456
H         8.25479231146789    9.48536933195691   15.75924860092256
C         6.38304189449593    9.16659878927418   14.75108146099302
H         5.80224289469347    9.17128771988388   15.66031013281699
C         5.74812560438143    8.96893514301535   13.52854391142627
H         4.67863253229317    8.82383539492975   13.50498543490882
C         6.46171671636427    8.93820290381755   12.34730913048706
H         5.96877483196544    8.76634545485515   11.40366783046880
C         6.67684225589634   15.00305330465679    7.78894606238667
H         7.44583065951015   15.57050610010690    8.29798718305652
C         5.76645664436941   15.63398405249591    6.93459976305556
H         5.82356946149668   16.69927809714425    6.77922203869797
C         4.81293959643560   14.87405534969806    6.30056445184192
H         4.09712878266740   15.32239027287834    5.62766209171604
C         4.77164074467691   13.48804802583769    6.53222333118030
C         5.72965219413957   12.94647825233260    7.42056135244890
C         5.71569884598923   11.53250251211522    7.69350478441347
C         4.75835060706987   10.71456775456715    7.05229732590761
C         4.78448828652242    9.33840848192340    7.34091131385784
H         4.07558001063386    8.68056035415133    6.86008459284551
C         5.71253481337450    8.85758426086588    8.23190393682915
H         5.75895217005788    7.80794908391811    8.47528467081628
C         6.61223269007915    9.74971718621754    8.82810801259069
H         7.34932077330366    9.40359633346405    9.54498824779623
C         3.82078899536745   12.62960846240025    5.90835077274820
H         3.10448184267710   13.06982150215557    5.23149258175455
C         3.81806981328335   11.29746886441499    6.15411080461756
H         3.10011884539296   10.64811839403905    5.67656249909070
C        10.83195198175532   14.38673494524797    9.34300235633132
H        10.72348250934839   14.59167030995212    8.28463862449211
C        12.03956186743336   14.64611853786008   10.00028386063883
H        12.87493202086475   15.04932987759526    9.45035750892405
C        12.13772909092906   14.37386004387044   11.34277078128290
H        13.05261508559513   14.55735768982638   11.88648664046434
C        11.02312682159186   13.84796135950075   12.01906842821083
C         9.85387451147875   13.60609711098813   11.26369611364633
C         8.69842403266422   13.05287822706421   11.92103554065629
C         8.73176417801198   12.84647163906847   13.31969507476902
C         7.55296778954922   12.39843043690845   13.93904639115594
H         7.53376465484677   12.25714000840655   15.00909563508774
C         6.43964267534390   12.15785618861999   13.17068910911681
H         5.51516700916227   11.82967718439788   13.61643816949935
C         6.53062639180160   12.31999688971402   11.78602197487622
H         5.68178818951119   12.09579335857035   11.15043037526209
C        11.03874417737366   13.56098999169081   13.41484730470537
H        11.95348458858837   13.73632054970550   13.96051305987936
C         9.93355629552495   13.09484763547798   14.04298263746211
H         9.94032802928036   12.89434661051632   15.10350690847601

