33
CSD_code = QEXPOZ | q = 1 | S = 0 | Stoichiometry = C8H15N2NiO6S(1+) | MND = 6
Ni        1.43638318573694    5.67896476023836    4.45527116388942
S        -0.68847110052883    3.85610302117061    5.12491347260842
O        -0.02467328306006    5.18368525973523    5.41526100691541
O         0.32447679968384    2.81392130632771    5.04288089778892
O        -1.75679995206322    3.65913793570429    6.04750530997695
O         0.49351394283069    7.76213771199600    4.27736472714918
H         0.87539166503717    8.34224144324160    4.94550999978008
H        -0.42637237852154    7.62177379401627    4.53047886436383
O         2.08802535476475    6.55344378712816    6.44813320580406
H         2.71741134545475    5.96843702386570    6.88527223878717
H         1.24807514997075    6.43818779221987    6.91571951961921
O         2.69042990024254    3.86123003827941    5.00293198251376
H         1.88398189320952    3.27679817301635    5.01941616173277
H         3.17385465406611    3.65293808076327    5.80603358279428
N         2.81133479225463    6.24953617656433    3.44132827640577
N         0.83323860703677    4.73988944920802    2.68529999235613
C         3.78943356527263    7.03415951043583    3.86692915506930
H         3.75043382887530    7.34471003723158    4.90269363663872
C         4.82346510366176    7.45562436959221    3.04123900145224
H         5.59830175890768    8.09319854434375    3.43495680466323
C         4.83854154974666    7.04405802110131    1.71791250302833
H         5.62923494937596    7.35234138099906    1.05206379225202
C         3.81405521549423    6.22715762692707    1.26677524922430
H         3.78474295469511    5.88454523346762    0.24461526198870
C         2.81098759629118    5.84628461788521    2.15285722572089
C         1.70250930096370    4.98418498383379    1.78726724410069
H         1.65521032086161    4.56183030546756    0.78305408690200
C        -0.24672568399931    3.82237179681616    2.46137202386154
H         0.14471727940386    2.81303213878279    2.65008637946091
H        -0.59482327066439    3.87173259801114    1.42068535073796
C        -1.37187564296358    4.05313968049167    3.44659599697309
H        -2.15740812264033    3.31319073614553    3.34183892262693
H        -1.78850127939906    5.05371266499105    3.38793696281253

