55
CSD_code = QEXQAO | q = 0 | S = 0 | Stoichiometry = C24H20N6O4Zn | MND = 6
Zn       12.69982334755846    5.11792477745760    8.92773519691940
O        13.95382227022430    5.55343872971894    5.11707368706740
O        11.78442960317875    3.15846244471790    8.51671206545269
O        14.51330649678069    4.00159296223809    9.48546302374411
N        10.84122672306507    6.11873318905381    9.34507006807713
N        13.54876237734196    4.32317512493031   11.47795868014024
H        13.35053078523755    4.06740093742359   12.44261911972790
N        12.47435033982625    3.77165842028494    6.47914456851506
H        12.80040126386530    3.57993454391476    5.53452428111920
N        12.61401893903377    5.11364814673267   10.85853048704987
O        11.30431435140950    5.13627481197609   12.71179516248801
N        13.73735128610379    6.92082631809087    8.37390260491703
N        12.82586372078205    4.98958111912871    7.00340709891082
C        14.46504711349515    3.75144231991672   10.69551462096207
C        11.98777574970271    2.86892562832656    7.33173293411904
C        13.99570932081900    6.99239206323487    7.08113968481971
C        10.55467099900997    6.15903880829442   10.63315436892922
C        13.60712297252639    5.77827989609566    6.27910049348966
C        11.51033938757880    5.41489572790604   11.52821629136671
C        14.61932068297562    8.13132213846148    6.50274337861880
C         9.40923329767535    6.84122625896696   11.12603839898945
C        14.96505109671864    9.20812091118474    7.36769584167091
C         8.56645173397637    7.49005571915682   10.17957392567367
C         9.07135961896492    6.91174701114226   12.49507334466533
H         9.70907692030980    6.41093204601543   13.20528126517519
C        15.43067051933895    2.81640103384799   11.37421135998349
H        14.96020380366642    1.84225958209610   11.49736716225235
H        15.71381473822380    3.19325955423505   12.35319575328107
H        16.31356853111500    2.69749715703865   10.75318774185414
C        10.04656766353027    6.73207370019069    8.45818893649272
H        10.35739852741574    6.64785641789088    7.42638799191477
C        11.69011074303224    1.50667753033314    6.76380658142971
H        12.59816929179621    0.90577180611743    6.78413950202680
H        11.34105572641815    1.57874821783506    5.73740986880495
H        10.94059416999266    1.01585877407187    7.37800122954907
C         8.91805157017681    7.41494448366933    8.81686551344613
H         8.29670175477955    7.89204369981418    8.07405552140788
C        14.90676286036122    8.24931504096002    5.12546535585761
H        14.64932299587894    7.42726963254257    4.47750622881638
C        15.58726004206534   10.35388001004099    6.83211125867084
H        15.84617526468342   11.16292845077820    7.49999760543120
C        14.05968510337508    7.93829839667651    9.18318764718472
H        13.80965031315080    7.79475099217616   10.22493285132925
C         7.95222764124613    7.58681316045169   12.89766208813940
H         7.69819593213154    7.63347147430492   13.94617601190476
C        14.66633945571053    9.07989581548250    8.73899984792386
H        14.91934901994016    9.87724867520219    9.42140893057282
C         7.42171361533290    8.17835780885583   10.62963789277285
H         6.79001969444787    8.66550219089931    9.90073416946713
C        15.85526772245487   10.43375869589426    5.49426124470824
H        16.33339102884725   11.31270044365231    5.08670590270539
C         7.12197663058840    8.22458700505716   11.96234414279476
H         6.24310608207634    8.75173454914228   12.30431937890272
C        15.51196549056803    9.37495471865799    4.63874466960038
H        15.73202366949260    9.45631092771764    3.58468701816507

