53
CSD_code = QEXQOZ | q = 0 | S = 0 | Stoichiometry = C12H28N4NiO6P2 | MND = 6
Ni        2.38108028961488    3.11346512849120    2.54809978961564
P         3.33082591818684    1.78223985560620    0.34164526446704
O         3.83881973896149    2.26555065452068    1.68767189272938
O         3.82894394638466    0.21654899565924    0.27418113479805
H         4.27627415791526    0.11005731178753   -0.56262414385505
O         3.81725108973783    2.46438883964313   -0.88090900251517
P         3.32603696787093    5.34492706906473    1.05631512218713
O         2.23816356215077    4.24941172455732    1.11653949631119
O         4.28286869394325    5.02291289054257   -0.16695552682271
H         4.18296555791859    4.08552043559327   -0.44650999500110
O         2.79153287257300    6.71964123624607    0.99211351293720
N         0.77545657159024    1.71888685623441    1.59135171418509
C         0.83410697771005    0.52506398985696    2.43122189199962
H         0.68772875656278   -0.38985592011604    1.83479836561260
H         0.02489538345560    0.58191784780657    3.16595493531865
C         2.16843455329357    0.41197481277145    3.17354744152645
H         2.12556351718983   -0.44159207744293    3.86655433303775
H         2.96869941176868    0.23381322631869    2.45533493059382
N         2.47415759988361    1.65323395733567    3.90451139717943
H         1.75119509370048    1.77090670747857    4.61831459797204
C         3.76441357495075    1.54786229390111    4.60117277786473
H         3.74965081776566    0.65649285833004    5.24772744759754
H         4.53455423110004    1.40983096774803    3.83971545757648
C         4.10056487781298    2.77394485967889    5.45596374207959
H         3.20347859976768    3.10876514591846    5.98268096358787
H         4.82653075898587    2.46702363703592    6.21165510722053
C         4.72292240606442    3.93536372948517    4.66719692382744
H         5.11783932216668    4.68114165187870    5.37601559028948
H         5.56284133192305    3.53634410015665    4.09725389740482
N         3.78239726183242    4.54492380791800    3.72928836238680
C         2.89864918217494    5.50132537505901    4.39162762904471
H         3.35031904554670    6.50463551614247    4.41592346519863
H         2.74401625339175    5.17138518694548    5.42444786168879
C         1.54137607952504    5.60466881973936    3.69327988602694
H         1.67539587558628    6.07803006712781    2.71983551214799
H         0.87326106177878    6.23368666719491    4.29977469837949
N         0.94437437310628    4.27515066521476    3.48751942243672
H         0.72822118947812    3.89584318097931    4.41310188369895
C        -0.32304542197221    4.38912908470816    2.75398765810245
H        -0.97457139524296    5.10812780340773    3.27433550874934
H        -0.08837035081377    4.79043766770138    1.76611044696309
C        -1.06575385650389    3.05699485652955    2.61574663481574
H        -2.12373654166282    3.27416607101575    2.45601938501661
H        -0.98665512178397    2.49492798541542    3.55008435503879
C        -0.59381923533298    2.20501752742365    1.43116774690885
H        -0.63070696534761    2.83501099921287    0.54229556293435
H        -1.29465770795454    1.36701559861184    1.28398567096760
C         1.46576571627202    1.54062835250262    0.31963461076826
H         1.25772397179407    0.55597565630814   -0.12505699460162
H         1.13789569330970    2.30902160388942   -0.37933743373908
C         4.44221018245190    5.13012313556993    2.56329944576537
H         4.86523930262564    6.11973620563306    2.78712551985355
H         5.24687482679032    4.46985537965976    2.24056410172395

