67
CSD_code = QEXRET | q = 1 | S = 0 | Stoichiometry = C28H29N6O3Pt(1+) | MND = 4
Pt       13.94510732579068    6.28949117764541    3.35072798051125
O        24.56418990310219    5.39547958766524    7.93696260715101
O        26.34660838563134    6.43907210402430    5.96362621786546
O        25.54140013340227    7.30810300341671    3.75404699871277
N        15.15603578920812    5.81192960284648    4.88464201104902
N        15.68036627702771    6.79986209423545    2.47044696989534
N        19.96388076932599    5.91728974068834    5.76699728213148
N        20.41514837497997    6.76277301015057    3.68869110122099
N        12.77351450642456    6.78339021669105    1.86633007486044
H        12.73517333580434    7.76748950429375    1.59714827179861
N        12.26690764694234    5.75997650650969    4.20127320134262
H        12.14353542128200    4.77431043776896    4.43713971904026
C        14.84103456051480    5.34236179804290    6.08318926496691
H        13.79011165300739    5.18472164907412    6.28263571209483
C        15.79874043389260    5.06773707087473    7.05823154270070
H        15.48351405348404    4.68650648565449    8.01589655639382
C        17.12989133373731    5.28567701403181    6.78213405023396
H        17.90784516430799    5.08504022672160    7.50116270948266
C        17.48714785276738    5.79082049057037    5.52512908654741
C        16.45554608736596    6.05049090569321    4.59083272455392
C        18.81584634246716    6.06627285900462    5.11423855209692
C        19.10134601904955    6.59740023285436    3.80018343211747
C        18.06419975503363    6.85695030745077    2.86888803186114
C        16.73949612218101    6.57899120116252    3.28382040369185
C        18.26108567988634    7.36320772210061    1.57746566502049
H        19.26624510092798    7.57783120529266    1.25177022428073
C        17.16600002094857    7.56434129838251    0.76744759572989
H        17.27676511707415    7.94625550530613   -0.23439257926838
C        15.89143098114427    7.27096830756286    1.24987826552504
H        15.01947501091346    7.41445543964365    0.62684060104063
C        20.90342280487214    6.34480234215412    4.88445417122985
C        22.29800926388854    6.35411801040187    5.19089829375720
C        22.73787768210697    5.86879160934702    6.42898981846214
H        21.98627072603112    5.50300752959898    7.10701327909797
C        24.07866579057751    5.86144401128243    6.75523813485511
C        25.02537103334179    6.36267795095664    5.82052325217070
C        24.56018745857859    6.85721922161798    4.55916431105903
C        23.21801965091057    6.84608235382108    4.25661456644510
H        22.83498063621856    7.20733702403439    3.31794938577359
C        11.48638458731865    6.22120805623730    1.97168267687484
H        11.52720927942982    5.14953555012514    1.74259858753662
C        10.37073561471210    6.88810190074891    1.18438509874504
H        10.30997647741990    7.94559597597641    1.45193574782300
H        10.59700802847729    6.81897471488694    0.11808502005924
C         9.03881954043982    6.19747161134644    1.47407040657567
H         8.24530715356863    6.68730845678472    0.90959466419684
H         9.09212321165350    5.15910445903656    1.14106867969237
C         8.70530940660030    6.23886040440591    2.96364360644854
H         8.58225399111184    7.27618830836312    3.28101989730710
H         7.76129850736980    5.72305896899569    3.13981749415887
C         9.80626963087036    5.58454615548457    3.79714405305237
H         9.55506789044551    5.65353215065100    4.85786553865620
H         9.89495812930880    4.52739102356588    3.53607669263504
C        11.13174506312744    6.28726384015857    3.55515773961411
H        11.04147863631374    7.35819126355376    3.77324270754656
C        23.65611495441218    4.87746965417797    8.88454739837502
H        23.11427037986413    4.01540148421626    8.48641627855871
H        24.26824987728239    4.56455617610499    9.72849707391189
H        22.94416335031980    5.63963302045381    9.21224564713952
C        27.03154557559340    6.01437192824199    7.12208132028977
H        26.71017579557783    6.56985178452634    8.00488460477123
H        28.08195856685187    6.22001177831361    6.91931833255291
H        26.89242191671184    4.94670292141145    7.30125155637485
C        25.19156727574168    7.82259958130301    2.48819678321050
H        24.70801317705123    7.06170607373783    1.86905581914856
H        26.12999557487133    8.12452146033588    2.02729026461714
H        24.53298420337667    8.69096453827207    2.57989682262204

