29
CSD_code = QEXRAP | q = 0 | S = 0 | Stoichiometry = C10H8F6O4Pd | MND = 4
Pd        2.15429984728652    4.21936010624578    4.26932641336684
F         3.80151862348759    7.02127030300147    1.04957357682249
F         5.75771129272837    6.13908929668952    1.21848643377422
F         4.35109635518157    5.36419219279128   -0.20858768166807
O         3.00059148064009    5.30626378987026    2.82140244580809
O         3.34065814117879    2.65112610374316    3.87019064464750
C         3.93364540036735    4.86933174602749    2.09069172275838
C         4.56261326859121    3.63932425286158    2.09115522731741
H         5.34811906811931    3.46619146250596    1.37358045949904
C         4.22893639995543    2.59647005108889    2.98432457853665
C         4.45484668317303    5.86425356552727    1.03451040704337
C         5.00655490271913    1.31351985107111    2.86265108225909
H         4.63642132966386    0.59287858452126    3.58629470675647
H         6.06194485505364    1.50398773524872    3.04427604853187
H         4.90448433314882    0.91105014401271    1.85762569305370
F         0.50427775653976    1.41620007204903    7.48659006835864
F        -1.45072494929602    2.30154233285197    7.32280180855761
F        -0.03936687795132    3.07383419727898    8.74639552485435
O         1.30567584933551    3.13140677141695    5.71509688020272
O         0.96534503530464    5.78631421019370    4.66602725083496
C         0.37304956162648    3.56854437765730    6.44623547067251
C        -0.25590765908072    4.79855136711046    6.44576076604263
H        -1.04101234675529    4.97187236637812    7.16372878410406
C         0.07730586151908    5.84113786886439    5.55212063870194
C        -0.14704554021857    2.57422014216599    7.50350248687038
C        -0.70037174918281    7.12406258776365    5.67369985447575
H        -0.33055201156483    7.84450607726176    4.94970122948622
H        -1.75579571172779    6.93341848024744    5.49248373455787
H        -0.59801919984295    7.52687996355403    6.67855374377330

