65
CSD_code = QEXTAO | q = 0 | S = 0 | Stoichiometry = C37H23N3NiO | MND = 4
Ni        5.59504339701474    1.74593983643253   21.92407727985049
O         6.69259652837307    1.08807844572342   20.46422996014153
N         4.60160362750245    2.70755377569518   20.71552715979064
N         4.44534852318769    2.47673564374117   23.11628935511498
N         6.47854483721497    0.85972474713232   23.29295171540936
C         4.67262601996859    2.90228371532555   19.37323275164809
C         3.65510158131350    3.83524798720708   19.01385252100985
H         3.47076198918900    4.19741022963836   18.02096984124908
C         2.98371541541432    4.17902482097938   20.16083522543400
H         2.16072069658139    4.86066942517131   20.25427506692057
C         3.59257826883329    3.46824954902331   21.22027787317822
C         3.50460052332656    3.33367362065415   22.62588426652114
C         2.75286946680057    3.84776019335792   23.70611819672843
H         1.94389123583097    4.54789564509197   23.62760005138462
C         3.26506071565104    3.28966038073318   24.85009128846863
H         2.94451403559198    3.47023587667110   25.85783287953313
C         4.32955522402566    2.41981903155084   24.47187134983565
C         5.19019787229419    1.63165751056737   25.24687552932733
C         5.03622225348154    1.60968935136261   26.70837656417408
C         6.10961650138042    1.92815218703318   27.53733799994948
H         7.05733048893810    2.19777034646699   27.09465816809442
C         5.95901723166039    1.92548112757283   28.91153016776031
H         6.79720016723299    2.18038764884542   29.54379420120706
C         4.73756373992527    1.60061415674318   29.47793217411961
H         4.62162691630849    1.59758647770510   30.55170465057810
C         3.66538855290096    1.28060755078090   28.66159202772941
H         2.71168940434103    1.02325219932694   29.09911191638522
C         3.81074180732575    1.28795250378538   27.28666297752342
H         2.97939742638422    1.02409624551681   26.64971180223995
C         6.20123693514496    0.87243426206070   24.63887511667392
C         7.07548805939036   -0.04745482150122   25.29464358091610
H         7.06233436913500   -0.26583041427985   26.34464792138924
C         7.87793784615186   -0.59588067755446   24.34427041516157
H         8.64025436032791   -1.33824119155593   24.47788398956423
C         7.50821605922315   -0.01516215347399   23.09031680670870
C         8.10422087240967   -0.32356831355013   21.85443957031958
C         9.23183162052727   -1.28424046271240   21.85173935656801
C         9.12333574537552   -2.49945165303620   21.18359432456405
H         8.20374682945750   -2.74281131654010   20.67121155022790
C        10.17572255700530   -3.39686364595977   21.18735140738286
H        10.07862180943809   -4.33993506941207   20.66952177720865
C        11.34955678339649   -3.08996785954010   21.85487800158419
H        12.17101844855007   -3.79096057477387   21.85648806307930
C        11.46553204804114   -1.88172583209877   22.52151213898861
H        12.37965577528364   -1.63721146796868   23.04253683831944
C        10.41323152213884   -0.98426322556490   22.52212221410309
H        10.50423730809607   -0.03923200891192   23.03755416794207
C         7.72730846516059    0.19674475229470   20.62317851542754
C         8.30175976371554   -0.04637860991474   19.35857122385208
H         9.13617261442492   -0.69374208618860   19.18019706832764
C         7.60729463805904    0.69101868128601   18.43808379189655
H         7.76876967719776    0.72803713671990   17.37969011170582
C         6.60513638802018    1.40880544902982   19.12076000766881
C         5.65233192107561    2.27408965613936   18.58617643886263
C         5.68913308385347    2.55321026477903   17.13837371003686
C         6.82857291730882    3.09042796633515   16.54594879741402
H         7.69440166178995    3.30296749629915   17.15626717502360
C         6.84687921438335    3.37364161288176   15.19274307579042
H         7.73486018547512    3.79576798290753   14.74514411573316
C         5.72990998338721    3.12250927999184   14.41341472762970
H         5.74584808039044    3.34387404343584   13.35657585558222
C         4.59195881321411    2.58939189327582   14.99530199964281
H         3.71847249530380    2.39109605026326   14.39149065984637
C         4.56905542011852    2.30881550650130   16.34917464232515
H         3.68503128003031    1.88437912050399   16.80191588122765

