41
CSD_code = QEXVOH | q = 1 | S = 0 | Stoichiometry = C16H15N4O4SZn(1+) | MND = 5
Zn        1.95398887562462    3.44462391828406    0.71727338553969
C         1.43752785416783    5.09668341177412    2.76980537744179
C         0.92553531728655    5.40668000398626    4.09809831267049
C         1.10403747031407    6.51918499222312    4.91520819339322
C         1.88515701540098    7.74307498907941    4.62735707655506
H         2.38245602417059    7.66103345873123    3.66615698029886
H         2.61938100265715    7.89822121654019    5.41547391407418
H         1.22028417548274    8.60527096429147    4.62681187994555
C         3.27559032135684    1.42991689314004    2.60432406479663
H         3.63983542803990    2.28814948824873    3.15026356399951
C         3.50575420610337    0.13215681319741    3.07032018112712
H         4.04868599003196   -0.01520279587911    3.98982531288908
C         3.03545637289472   -0.93557404832307    2.34355258124834
H         3.19779127575380   -1.95081904706813    2.67305238058257
C         2.33136015194991   -0.69662155563351    1.14956767434932
C         2.14108909925395    0.64896172778379    0.76923702962060
C         1.42604084100182    0.95258973222435   -0.43427403353112
C         0.94289437946473   -0.10325068081700   -1.23812874711978
C         1.15298284407503   -1.45104937996981   -0.82494464994658
H         0.76885684279668   -2.24037170193875   -1.45249492540944
C         1.81462759620314   -1.73626841685860    0.32323079593814
H         1.96813279675894   -2.75830183987361    0.63363384544101
C         0.26907834791252    0.24020799834926   -2.42312044364047
H        -0.11687005445171   -0.53861144488618   -3.06336098228942
C         0.11944545387769    1.56777929274680   -2.74736176509414
H        -0.38218617143338    1.86799816093129   -3.65295085406764
C         0.62335134048002    2.54215155866449   -1.88329440883616
H         0.52379440696540    3.59084824600852   -2.12038320247690
N         0.45168963376374    6.38120045173017    6.08225287816413
N        -0.18252468008513    5.30637322240395    6.22522120105470
N         1.24737911932380    2.24635606395206   -0.76027394340120
N         2.61716513451789    1.67601946451024    1.49187277272643
S        -0.08186745317005    4.28775729084235    4.93744882949145
O         1.41407681240716    5.29897628502908   -0.31194123318211
H         1.68238657190059    5.88270199253659    0.43155655358499
H         0.50456689042905    5.53823200368995   -0.51685265286081
O         1.04273995512252    3.99197299359705    2.26285446959808
O         2.21001482126711    5.86802283392378    2.16913852833686
O         3.85109376208047    4.30687747921370    0.76107506000727
H         4.30527192965094    4.66594270222837   -0.00879030313017
H         3.63502829863660    5.06960526141849    1.34105930210982

