81
CSD_code = QEYGEG | q = 0 | S = 0 | Stoichiometry = C21H54CuP3SSi | MND = 4
Cu       -0.25946371944646    3.34376801623285    3.13806677415368
S         1.61324060468411    4.72424903620278    2.80195493227205
Si        2.88720847747624    3.87256355328272    1.38919564631242
P        -1.61239278260703    3.58325211008214    1.25022492876997
P         0.46566620365804    1.25710226235308    3.94079243295755
P        -1.42218548952714    4.49459515364089    4.97183539453437
C        -2.14953087858354    1.93563945186502    0.59330833753701
H        -2.66334459773589    2.04953518406373   -0.36445021938133
H        -1.23034284770547    1.36958741104439    0.41517957811928
C        -3.02093784577065    1.20440263677430    1.60538168016384
H        -3.17214865005536    0.16643388486777    1.31280264066201
H        -3.99662668898015    1.67684588425989    1.69421269427438
H        -2.54114500494485    1.22820577104421    2.58396491138445
C        -0.87573950916068    4.29129095326268   -0.28905698893377
H         0.02214220394538    3.70042160665635   -0.48754933706221
H        -1.56489747081709    4.15653200691434   -1.12895466528236
C        -0.49078759669099    5.75403776898468   -0.11426743916607
H         0.00145269806211    6.12584742055092   -1.01117250809488
H         0.19941771857926    5.85580631453799    0.72187802592305
H        -1.36485769286173    6.37435375913298    0.07340175557846
C        -3.21928909173468    4.50015566414488    1.39124243464686
H        -3.72129442718095    4.08859766008563    2.27253655957968
H        -2.94336235295985    5.52957719342966    1.63397889143566
C        -4.15787489423905    4.48403948535533    0.19162330848300
H        -5.04629274540205    5.07272893600743    0.41610905376366
H        -4.47884356078035    3.47409546878749   -0.05105346155468
H        -3.68310722770992    4.91740487593891   -0.68489163814381
C         0.31359289507617   -0.28519231843316    2.91117015709388
H        -0.72644877691505   -0.33557486481044    2.57790430792650
H         0.92485824904401   -0.09960621313042    2.02355126642242
C         0.71466418462304   -1.61453770485267    3.53998746050659
H         0.57161361184946   -2.41357594301793    2.81390279901807
H         0.10712349046744   -1.84273662862182    4.41199682958406
H         1.76087828431560   -1.61567767833738    3.83345745111705
C         2.25374264219163    1.17949566159863    4.39877008932617
H         2.46570431652729    0.22663009909182    4.89375815557358
H         2.80633058104566    1.21716460577105    3.45649761550934
C         2.67441436950379    2.34702595182187    5.28021108296880
H         3.75060436475859    2.32896396071362    5.44200784737646
H         2.18644049232168    2.30197636587884    6.25168042407151
H         2.41527464762432    3.28706028710237    4.79413501202146
C        -0.29694897625652    0.74128154676633    5.55100616208433
H         0.23811142372887   -0.11934318901096    5.96095735388183
H        -0.15568863268196    1.58478418349788    6.23205474401826
C        -1.78390152735689    0.45255968943267    5.40950375123858
H        -2.23538851096748    0.26449833014938    6.38238950223144
H        -1.95886279176638   -0.41749006555453    4.78026336837482
H        -2.28034022073239    1.31012485641923    4.95874089841452
C         0.03305841806391    4.92408000716974    6.02499368116644
H         0.36823251799787    3.98183800378984    6.46887204596176
H         0.80060995060149    5.23070971795829    5.30733174550529
C        -0.13363533528288    5.97638652047824    7.11377190092693
H         0.81641385013591    6.10820151924153    7.62871118648670
H        -0.87590960863912    5.68008014290967    7.85237897990349
H        -0.41970762475606    6.93772044413767    6.69637179903725
C        -2.07942144715977    6.16766710870590    4.52473954972805
H        -3.01887968568622    6.00347085599992    3.98928438011505
H        -2.30859492266168    6.72870744875411    5.43575582699523
C        -1.09932766607389    6.91845506546819    3.63605038038994
H        -1.57003857476589    7.79292218370693    3.18903994093175
H        -0.73540229274319    6.26273710361342    2.84682603399752
H        -0.22994780360842    7.24364127196548    4.20002996230489
C        -2.68611270844414    4.02229986837966    6.26268036664134
H        -2.28699494739948    3.15502352020879    6.79584773264877
H        -2.81002353170856    4.83628457688672    6.98043513867863
C        -4.03094039115009    3.67294407372701    5.63753648012876
H        -4.70481008861798    3.25598202934980    6.38432040472567
H        -3.90659562534332    2.94049828673283    4.84111909590817
H        -4.50085895172780    4.55733368228051    5.21374078753640
C         3.19832211117287    5.02725177093414   -0.09965766590482
H         4.05310089107683    4.68918493591471   -0.67866603185773
H         3.40796113175625    6.03621612806489    0.24098139554315
H         2.34395585217531    5.07820687856780   -0.76746746631337
C         2.18712877819607    2.23041105137902    0.68166481754770
H         2.80856467742372    1.38018303153676    0.94893259232200
H         2.11720754691596    2.25413797277845   -0.40214337646941
H         1.18690350033337    2.05222449848213    1.07812321746671
C         4.61401107799771    3.49290387739699    2.11141536663778
H         5.28189532859302    3.10692718816416    1.34631536249031
H         4.57645705425846    2.76785031342114    2.91845590641717
H         5.05694157115142    4.39951851990290    2.51146846072031

