97
CSD_code = QEYJIO | q = 0 | S = 0 | Stoichiometry = C50H10Cl28N2O6Zn | MND = 6
Zn       10.25804898693017    0.00006014830087    8.26624695146405
O         8.53035226199416    1.18362807987649    8.13595168765866
O         7.66442647801081   -0.80569225972670    8.73944848747011
O        11.62327675014284    1.41425143983765    7.97395818986516
N        10.28455109482836    0.38068684358700   10.34314302313243
C         7.61481487290750    0.46023050972320    8.49782410297762
C         6.23388242364873    1.00563855676926    8.72847712254354
C         5.40481054599544    1.28256645914280    7.64690683664936
C         4.13835368737938    1.81695017907140    7.85111078424962
C         3.66905543838621    2.09460905614503    9.15355317833770
C         4.53219444905258    1.81403073068896   10.23521731677141
C         5.79559279901361    1.27795163626992   10.01951666428161
C         2.35203482476270    2.64790181998054    9.37119790341366
C         1.23201996189989    2.14915813709128    8.61470021982798
C         0.24374761683057    3.01879123182340    8.10218293662439
C        -0.83303879771661    2.53987056431526    7.36778239973649
C        -0.96229150602620    1.17151111863513    7.12017167016042
C         0.00041949165101    0.28996301219203    7.61599394768006
C         1.07807776024952    0.77027672566231    8.34910910431111
C         2.16362684894583    3.69552014337063   10.34162651799716
C         3.09572093126980    4.74794618943991   10.48074213750695
C         2.91350257865445    5.75744042245120   11.41726167472065
C         1.79307401370761    5.75094115710940   12.25044766507810
C         0.85757261584826    4.72048774740368   12.13509755008152
C         1.03982229210423    3.71239327761862   11.19767900070669
C        10.31606132390866    1.63170160419939   10.78681355412632
H        10.41731844855652    2.39125135997959   10.02499995728368
C        10.23063176955289    1.94510827076603   12.13311544011160
H        10.25252967667709    2.97529915668759   12.45200548667459
C        10.11381167703726    0.91379294711724   13.05191660352072
H        10.04100447298807    1.12235324083748   14.10934685504487
C        10.09171829341176   -0.39065465958125   12.58442483604597
H        10.00459830468431   -1.22457991693810   13.26308832232565
C        10.17814197321247   -0.61061331063221   11.21960507564470
H        10.15030879626353   -1.60472589375456   10.79705447842894
Cl        5.97802954744667    0.94969679327352    6.06998130785867
Cl        3.19290007028456    2.20841253810543    6.47777934867349
Cl        4.01578604117388    2.04930973833060   11.85140559254726
Cl        6.84595453655309    0.94812470857446   11.33205608236371
Cl        0.39395441233837    4.71564535609811    8.29247958344086
Cl       -2.00529958587115    3.62214582435010    6.74906098570243
Cl       -2.28464532242769    0.58238382283511    6.21953343848721
Cl       -0.16363583595954   -1.38794902981590    7.32288062718185
Cl        2.17668748966224   -0.37143040352697    9.00634102235207
Cl        4.44473084459517    4.86212282294590    9.42735136157082
Cl        4.05466391621367    7.02540981414866   11.55100118664842
Cl        1.56900431032522    6.99044810798277   13.39969853994014
Cl       -0.50847740223343    4.70387566120661   13.16572915138059
Cl       -0.09540802575727    2.42840450518968   11.16915758504244
O        11.98563425902680   -1.18341925582132    8.39635862520008
O        12.85180473015003    0.80596376641870    7.79349181842616
O         8.89290519766360   -1.41401069513017    8.55867964259030
N        10.23110545113749   -0.38037426324755    6.18941865093617
C        12.90133091725718   -0.46000297267861    8.03489564555769
C        14.28227958642724   -1.00548779253102    7.80455737467736
C        15.11110514094665   -1.28240829757116    8.88631624904324
C        16.37754230913503   -1.81696486499165    8.68241557745793
C        16.84706909641701   -2.09481161663567    7.38009506894727
C        15.98415824120550   -1.81425871383814    6.29823634081827
C        14.72079788252524   -1.27798502379705    6.51363355887296
C        18.16415398092560   -2.64812365136361    7.16281806175398
C        19.28398683628707   -2.14925409410602    7.91950112102749
C        20.27213821011622   -3.01884074144129    8.43232261924701
C        21.34889744966386   -2.53983585991221    9.16672090255281
C        21.47822656196843   -1.17142912840769    9.41402711153068
C        20.51560294202568   -0.28993045451322    8.91794617541575
C        19.43797034579758   -0.77033062201016    8.18484994056840
C        18.35277927696790   -3.69591611592607    6.19262002849537
C        17.42061147916965   -4.74826687497039    6.05343148565908
C        17.60281495333263   -5.75779305870471    5.11694340732654
C        18.72331758593002   -5.75140752598904    4.28385322906327
C        19.65893936406639   -4.72107591525984    4.39933600215024
C        19.47672112124445   -3.71296778933942    5.33674153413510
C        10.19997262703683   -1.63139987011334    5.74569949742170
H        10.09892984698801   -2.39099822379696    6.50749280352765
C        10.28571349037276   -1.94475693478618    4.39939277970485
H        10.26416386498766   -2.97495156537882    4.08043950092107
C        10.40235609551562   -0.91336573765685    3.48064157628723
H        10.47575402259399   -1.12193759628442    2.42317720934638
C        10.42401371157994    0.39108165286748    3.94818710675436
H        10.51132648960994    1.22502802989894    3.26954761248199
C        10.33727156023118    0.61097838998871    5.31301168866721
H        10.36543727301084    1.60497872088115    5.73559030417516
Cl       14.53757535303231   -0.94935311479224   10.46309423177366
Cl       17.32278323715317   -2.20825795751075   10.05594074931706
Cl       16.50084626070479   -2.04964162194437    4.68213811586299
Cl       13.67075061310360   -0.94811805326867    5.20084973053489
Cl       20.12185301315080   -4.71570432789748    8.24217886625011
Cl       22.52103993252664   -3.62202845260448    9.78581894168280
Cl       22.80055020841876   -0.58219192454640   10.31464008048091
Cl       20.67973827248124    1.38803200170645    9.21068967984901
Cl       18.33958360058833    0.37135911531064    7.52721148383465
Cl       16.07140386481542   -4.86216224897725    7.10659538999870
Cl       16.46154636953476   -7.02565848308913    4.98311713247033
Cl       18.94735208471069   -6.99092867206261    3.13461472892738
Cl       21.02512601071122   -4.70461292428087    3.36887678288628
Cl       20.61210112462603   -2.42910462505505    5.36527033974351

