49
CSD_code = QEYJOW | q = 0 | S = 0 | Stoichiometry = C18H16Br2F8N2O2Pd | MND = 4
Pd       11.57180210898202    3.01396393555141    7.15660463706518
Br       10.58024448184440    1.33261798819458    5.85095045874735
F         5.75098554946305    9.60440333482768    1.52076196469812
F         6.59183018394302    7.66607503328061    1.06607778727843
F         5.36119645336874    8.52410669889553    4.24072530052571
F         4.13911026680722    7.79718395794300    2.60934123433817
O         8.13782259169669    7.85894442539002    3.47368846472720
N        10.76794445761774    4.59750317574163    6.10687026655037
C        11.12434476048072    5.81343683163426    6.57705401456251
C        10.64825883719342    6.97871937465506    5.97681684510541
H        10.93063990935679    7.94484220843255    6.36204224333234
C         9.80637606078343    6.90334778269474    4.87852616702603
C         9.45959270256423    5.63976662651603    4.40838917746835
H         8.80944962606127    5.53599238631096    3.55697507983971
C         9.95732190154650    4.52453037916589    5.05199649610618
H         9.69687704760265    3.53068616913804    4.70733885112311
C         9.30750330051534    8.15088973689363    4.20838006945167
H         9.09832792924828    8.92845782957500    4.95891619837300
H        10.09114067160917    8.53499235706729    3.53361890418108
C         7.65172006285436    8.95602627987661    2.75163601744491
H         8.35700766608067    9.27145177268262    1.96866630425902
H         7.43534708760899    9.81150323131299    3.40807862568869
C         6.34538137781837    8.52824848358401    2.08258853118137
C         5.39277439734517    7.83378441304697    3.08253784005252
H         5.73589459894408    6.80949423054405    3.28727225608226
F        17.39260879932436    9.60410434278271   12.79216390178811
F        16.55105202535021    7.66608323538333   13.24670701862330
F        17.78230289554462    8.52353975979254   10.07219316311220
F        19.00406865437608    7.79660023254345   11.70372690614019
O        15.00566867020918    7.85917838587318   10.83892199619311
N        12.37518006874411    4.59768545713789    8.20602258743545
C        12.01889083180923    5.81350581253696    7.73573402351311
C        12.49531053829955    6.97884268778145    8.33562106329914
H        12.21351377076545    7.94493345507775    7.94977661672242
C        13.33705990956787    6.90357815923778    9.43399905365427
C        13.68390784169541    5.64006421397080    9.90415365860793
H        14.33381374745074    5.53629811319985   10.75589205150150
C        13.18631506599160    4.52485289252599    9.26049066967959
H        13.44549078572261    3.53095079792418    9.60641369688229
C        13.83616104144233    8.15115180516920   10.10392669760552
H        14.04550779006906    8.92864308849058    9.35336853405268
H        13.05241261964441    8.53532279165665   10.77849157562346
C        15.49184197655850    8.95627226622392   11.56094950430852
H        14.78648542873615    9.27197727339100   12.34375979707281
H        15.70853311902354    9.81163182572350   10.90445598263049
C        16.79794393658558    8.52817107517026   12.23026889479097
C        17.75047250699715    7.83338677875136   11.23046513477892
H        17.40713225080668    6.80913153922925   11.02585893312420
Br       12.56493169395067    1.33232536746957    8.46058480365085

