48
CSD_code = QEYJAF | q = 0 | S = 0 | Stoichiometry = C15H22BCl3N6Zr | MND = 6
Zr        0.07592044763529    3.54771594991278    2.72014509085782
Cl        1.74866949775708    3.54833481796760    4.36069896920294
Cl       -1.13488685005807    5.25916485909747    3.76671462807548
N         1.17449866136203    4.98347257491748    1.50447600465491
N         1.29458600747339    4.79364468192192    0.16785029298870
N        -1.29993296808336    3.54748128512814    1.02477882055047
N        -0.81978639055426    3.54811530506389   -0.24268531118983
C         1.97583713365566    5.81884438326888   -0.37788810284042
C         2.30614037044000    6.69485322895702    0.64113769036613
C         1.78474257849238    6.13412606050592    1.80958247671703
C         2.28513139349040    5.93510189969428   -1.82644664403235
C         1.85993027077849    6.66465331974776    3.19458038290359
C        -1.84281258668112    3.54881914624141   -1.11793850192314
C        -3.01929789278652    3.54858291516030   -0.38962648178439
C        -2.63597192323799    3.54773088771752    0.95381548814952
C        -1.67420428531308    3.54980726112721   -2.59410994938563
C        -3.51011953954898    3.54711281830724    2.15431361232318
B         0.69591846901661    3.54801595393931   -0.51039354769705
H         2.83868712975413    6.85250262720408   -2.00462452480047
H         2.88482103914211    5.09134796072843   -2.16199125542000
H         1.36995603927501    5.95651121471928   -2.41490800671040
H         2.84888050696601    7.61335799262012    0.55231973508281
H         2.38677634816109    5.95946193159152    3.84106577870876
H         2.38479486041450    7.61641655286277    3.19910687720167
H         0.85613821019246    6.80455782765540    3.60191569824191
H        -1.12385781248013    2.66921900225082   -2.91972896470745
H        -2.65107144227700    3.54908738106641   -3.06912177004942
H        -1.12574462429346    4.43196245880068   -2.91869974215930
H        -4.01778274359280    3.54898456917002   -0.77582060217842
H        -3.31248787542037    4.42930082162997    2.76707836837735
H        -4.55420433407218    3.54726592350908    1.85206784432999
H        -3.31242946886300    2.66432816275744    2.76620611966674
H         0.92093977005176    3.54809335027646   -1.66490148576879
Cl       -1.13501465591427    1.83686208041518    3.76702768195642
N         1.29451146969045    2.30227409587093    0.16771220668260
N         1.17451799625159    2.11232433097219    1.50432814471950
C         1.78479654514748    0.96166839721956    1.80933770374457
C         2.30614370212514    0.40104711960259    0.64082790970700
C         1.97577603152069    1.27713041550399   -0.37811649753579
C         2.28497567613283    1.16094143629809   -1.82669139991497
H         2.83932080002868    0.24400260957892   -2.00479004646274
H         2.88383695894246    2.00518615281955   -2.16246191298538
H         1.36971554037978    1.13858690680514   -2.41499453981385
H         2.84890709011386   -0.51743011021076    0.55191853509880
C         1.86002611119715    0.43106840227816    3.19430946370143
H         2.38653884872225    1.13638079793195    3.84091578050931
H         2.38521835748706   -0.52049786059863    3.19887022326854
H         0.85625153137839    0.29078009999473    3.60153775957301

