110
CSD_code = QEYLIQ | q = 0 | S = 0 | Stoichiometry = C49H54N2OP2RuS | MND = 6
Ru        4.31563488173684   10.32600503547833    8.40385584545498
P         5.78547055561672    9.65397623469401   10.00943900855161
S         2.15955909748714    9.81046099252420    9.52844621774829
P         4.25890430967464    8.35401007987934    7.24930657224105
C         4.29839586303552    8.32263933440862   12.03026459682582
H         3.41162094581121    8.64955999452938   11.50824414089815
C         5.55740174529343    8.64798782899378   11.54214075379611
O         1.34532087989581   13.05466916822668   14.41357561687612
C         7.01717720399332    7.33824523448172    9.17541922956524
H         6.04995244033489    6.90853937710994    9.40218035768081
C         3.40554257527233    6.85351988470755    7.86670213187833
C         1.93407379785630   10.74995270909913   10.97832070190409
C         2.76377138946687   11.98177737874772   12.88337638418056
H         3.58804843363721   12.34873246205313   13.47657828094007
C         6.60726466051749   11.12256794244173   10.75747926441605
C         6.60997219146865   11.39686839835077   12.12168757696970
H         6.17229570154209   10.69736631917890   12.81943777923147
C         3.77166798324984    8.86065492234908    4.48868249069644
H         4.84055964470080    8.80089612553652    4.34037246204239
C         7.22643787972981    8.70025756537917    9.38287447245597
C         6.68422070627297    8.21444676353316   12.23951630212485
H         7.66959349257365    8.47050437374648   11.87375152647561
C         5.74355147218709    7.61123806025976    6.46499316860376
C         4.16431662848758    7.57464447084282   13.18777932953880
H         3.17740888269977    7.33128993887201   13.55430318125945
C         6.76240982567148    8.47402394179625    6.07388863685524
H         6.65919424776888    9.52665547592912    6.29912105803812
C         1.56694032055041    9.24507397734545    3.61085892716829
H         0.92019616414459    9.47935954138890    2.77783839518697
C         7.88818182526445    7.99276421850789    5.43395550203270
H         8.67369993520120    8.67341135653697    5.13843422072930
C         2.12744325792718    4.83892655781667    7.56716620102924
H         1.61759228953783    4.14496568154557    6.91352820527583
C         6.54851206320662    7.46987476077621   13.39465632378675
H         7.42955723605145    7.14124477154129   13.92755829383504
C         1.46303228885211   12.27991903517205   13.28363079484448
C         2.74755994355554    5.95253660988966    7.03153007463712
H         2.71758336650290    6.12279929614544    5.96367162181838
C         3.23608683162772    8.62396524121127    5.74966849029150
C         8.47346381270546    9.23633763468009    9.09006281513333
H         8.67218483072996   10.28396012532264    9.25758727907863
C         8.03164074098423    6.52984454166396    8.70257480693612
H         7.85555968982325    5.47347191072224    8.56048179320297
C         7.16022065084744   12.06352355682115    9.88744707141046
H         7.12937498108630   11.86335216975573    8.82284962942963
C         3.42409179395122    6.61469617104072    9.23272351080401
H         3.91843291019350    7.33099201438268    9.87211429474796
C         0.39943689085247   11.78759770931534   12.53527994905629
H        -0.62219372142720   11.98332946556455   12.82348069801531
C         9.48430041001179    8.42747073777470    8.59945154244011
H        10.45018026857006    8.85818415510675    8.37564979405553
C         5.28737681261048    7.14577220124119   13.87160003346700
H         5.18447668914526    6.56211190631219   14.77507570528210
C         5.87572756865180    6.25171556435617    6.20744737530127
H         5.10641386085126    5.55960675261601    6.51658164165611
C         7.72996382492584   13.22794486664946   10.36853156533174
H         8.16609760246435   13.94041661338205    9.68179492535389
C         3.82748111593381   14.77781611962371    8.41220543069204
H         3.80313418255356   15.13338044177653    9.44112455826899
H         3.25034230939593   15.46956124296054    7.80428786015137
H         4.85970001615312   14.79443946550486    8.07170449309466
C         2.99376785185663   11.22647802044572   11.75486975986324
H         4.01290168443936   10.96763760453320   11.48582057538198
C         1.02632803643558    9.02339884832874    4.86931835349402
H        -0.04216603573164    9.08755109454609    5.01767807262741
C         3.23659510106604   13.36399732683102    8.34750234425619
C         8.01015059385227    6.63783217259101    5.17459567698673
H         8.88902195818367    6.25690720738539    4.67477540015266
C         2.93700589125767    9.16571757002616    3.42533575023123
H         3.35954716635680    9.33963854446852    2.44588782509568
C         1.85452252043671    8.72033917963213    5.93277182625357
H         1.44501378565557    8.55658636622203    6.92244511768064
C         2.80505104099685    5.50076526440350    9.76913927119260
H         2.82735178893376    5.33425227267327   10.83669269711437
C         4.40026860418964   13.11860002502525    6.07066252403916
H         4.34147010343013   12.60673437589471    5.11159627649746
H         5.28162831241855   12.74836928452756    6.58814927245021
H         4.50319141932169   14.18242133557156    5.88053336844953
C         2.15392238132764    4.60953457191925    8.93415626843329
H         1.66235295151555    3.73920562677798    9.34456623397106
C         7.00342394451242    5.77197119908310    5.56480320081029
H         7.09650627740861    4.71284801797655    5.36961112272069
C         9.26989032269298    7.07458470657781    8.40674068245382
H        10.06429777487542    6.44603286398008    8.03185075794318
C         0.63593776619630   11.03548713334366   11.40146585265513
H        -0.19508958036073   10.65497070828660   10.82531180285433
C         3.13751314197159   12.81953124492892    6.88349017873355
C         1.93117954493716   13.37996246161155    6.11676411083761
H         0.99202461673111   13.04139507624815    6.54664294350167
H         1.96980767940397   13.03776981645108    5.08364924919327
H         1.94040551074101   14.46666520753931    6.11088530037877
C         1.86245398986769   13.39387650099471    9.02571042037779
H         1.97420835684416   13.67541326634436   10.07230317459402
H         1.38216439299929   12.41869468847500    9.00053594380558
H         1.21007263790316   14.12301603295273    8.55478175370239
C         7.17169177991483   12.56853707358629   12.60091828598749
H         7.16567620119309   12.76633171279743   13.66313301353416
C         7.73799678653339   13.48358563216091   11.73075255286167
H         8.17837863513807   14.39408124962727   12.10987936133176
N         3.00430072906213   11.36012158699866    6.98432618129493
N         4.11083092716637   12.44550873731478    9.10981433822031
C         0.05597777441419   13.33396419931331   14.89017804691637
H         0.19529839114115   13.92740983959238   15.79298549717293
H        -0.48976508750192   12.41785097229451   15.14182333818037
H        -0.52780110573812   13.91334311964193   14.16552908408858
H         5.53001481949836   10.78299885611233    7.57369457238417
H         5.06227837794678   12.81500157212525    9.12262483533982
H         2.09083716152927   11.11883017318657    7.38673320059683
H         3.79149509114044   12.42803183983023   10.08147738618484
H         3.03230778632549   10.96486139115129    6.04499628640401

