93
CSD_code = QEYTUM | q = 1 | S = 0 | Stoichiometry = C49H39CuNP2S(1+) | MND = 4
Cu        3.53639613075151    2.03504302520104    3.91582000181061
S         4.06068024657457    4.33828660569206    2.36646260004984
P         5.52009768802125    0.95432270767773    3.70150322405269
P         3.09406972240916    3.37661518880192    5.67445699942682
N         2.32723677912621    1.76750709932119    2.37237668304116
C         6.24759580992985    0.72823826272517    5.35569406270185
C         5.59008426871027   -0.73380241609478    3.01973102007670
C         4.41472392761868    4.60749543371035    5.86788412617748
C         2.92509873736040    2.62222037911483    7.32208116906706
C         6.81539976905055    1.82852009763060    2.77505628415079
C         1.58697375966780    4.39365587444937    5.58139724687531
C         2.72468790944783    2.20477911094177    1.16679515178969
C         4.26160994096487    5.92024300557051    5.43495632570294
H         3.30971283906731    6.25236769379916    5.04527533578073
C         2.16035303948590    1.45930755511988    7.37947244202536
H         1.72808600322763    1.06913843848788    6.46529295490373
C         5.38975937971782    5.04335477243955    1.49755197032327
C         6.14703832535508    6.13612007369548    1.88916433082906
H         5.94808759060526    6.62929922869185    2.82784752425713
C         1.29646802868981    0.93017476179971    2.45810847773634
H         1.01793077147997    0.62605162352201    3.45744942116473
C         4.71206502660047    3.30593515802478    0.07638488378671
H         4.74590375483618    2.66805477190995   -0.78890683427056
C         7.25845464018986    3.04828244687613    3.28295433331762
H         6.83746936175276    3.42570707097542    4.20610267832385
C         5.62458360641767    4.37430104722069    0.28103736482833
C         3.81877755327812    3.15405731116794    1.09329811197896
C         0.88335554050822    4.43027840290300    4.38264418318228
H         1.24590824895789    3.85627224832724    3.53879642696182
C         5.65161704490335    4.17658638510847    6.34636911306230
H         5.77110478954406    3.14944587677557    6.66687965595055
C         0.61378954408356    0.46420310479807    1.35226973512034
H        -0.21695556766876   -0.21137772964651    1.47054721541423
C         1.02668973897945    0.88894846425357    0.09506041542233
H         0.52157697587772    0.54631439636816   -0.79460819454066
C         6.63544093978455   -1.60183946633294    3.32149648693470
H         7.42742132070579   -1.28222355636882    3.98379269893965
C         8.23920154091479    3.75914254744461    2.61914312266702
H         8.59810848177929    4.69046805505040    3.03020064423677
C         6.65306861266254   -2.87023743086742    2.77209918834677
H         7.46379769680381   -3.54376248178408    3.00529705704496
C         3.48356237692141    3.13854928296734    8.48507864436938
H         4.07641924394031    4.04155555246191    8.45212313075672
C         5.35186034617807    0.37012776854352    6.36082148147739
H         4.30681748110509    0.23252240413847    6.10926552200680
C         8.75725813320584    3.27663243921578    1.42767883880450
H         9.52626254396028    3.83006866525284    0.91149835937585
C         5.78958628733397    0.20109323177913    7.66025433344287
H         5.08741570634865   -0.06815275455718    8.43487207193143
C         4.56696809895660   -1.14901078211557    2.17332025055711
H         3.75428786067596   -0.47034805376824    1.94871918753494
C         2.08557477466392    1.77056305048819    0.00190993076675
H         2.41405790382932    2.14304890277363   -0.95439068085731
C         7.59196622648983    0.90793319662467    5.66084523247112
H         8.29429944897616    1.18716763476445    4.88809203816349
C        -0.71027396520795    5.92443020430751    5.36649446272208
H        -1.60557788604851    6.52160062398949    5.28506564536988
C         4.59132007575440   -2.41870280704764    1.62502683465969
H         3.79657524993732   -2.73807472577273    0.96735159927274
C         7.31631149457546    1.36028442098028    1.56549924312020
H         6.95719831015642    0.42613701697659    1.15658075153713
C         7.12904079397958    0.39074733560765    7.96298492114153
H         7.47492319268664    0.26775343437228    8.97778677917256
C         2.51932917481299    1.33179263727212    9.74245895885014
H         2.36505216027613    0.83060076384689   10.68583369964491
C         6.71237273258812    5.06033228844296    6.41946307268475
H         7.66587190334761    4.72369950486877    6.79898619318300
C         8.28607577258244    2.08688724365511    0.89776104163983
H         8.68225347383894    1.71737537194684   -0.03604647674870
C         5.63434757390332   -3.27946380301230    1.92508568489861
H         5.65285708605637   -4.27159312414919    1.50087934972239
C         7.15101586240234    6.56550891760716    1.04642986993187
H         7.75098443293126    7.41823925200727    1.32451194028071
C        -0.26250068781591    5.19779898107149    4.27550770584602
H        -0.80717214782891    5.22826204591984    3.34359941411255
C         1.13389297697796    5.12193452252515    6.67785039780034
H         1.67853310859348    5.08692532460017    7.61097625395129
C         3.27891047259363    2.48894841098036    9.68997573558483
H         3.71298890471347    2.89071269109155   10.59324910398986
C         5.32847844868337    6.79893158634832    5.51067810360720
H         5.20213380702101    7.82234832655084    5.18867691129366
C         6.65408055779838    4.82682037026793   -0.54942893207647
H         6.84344997172086    4.32423042251003   -1.48530512485530
C         7.40083550923659    5.91553510294970   -0.16369069548569
H         8.19007534826537    6.27852723165606   -0.80376657946729
C         1.95550702030130    0.81715435200119    8.58518501156111
H         1.36096433212900   -0.08319735197001    8.62590531374889
C         6.55180506875629    6.37273308515835    6.00208034180648
H         7.38034957743114    7.06216334269413    6.06049677958468
C         8.02520168112250    0.73793070717253    6.96459230101487
H         9.06905283680371    0.87867738797867    7.20211141645353
C        -0.01287966462524    5.88510359154429    6.56465441064564
H        -0.36619049973723    6.45145962197750    7.41307458147113

