92
CSD_code = QEYTIX | q = 0 | S = 0 | Stoichiometry = C45H39ClNO3P2Re | MND = 6
Re        2.04003977561652    3.49909366829770    4.13933712334829
Cl        0.70874580845268    3.66761311188621    6.07425783294932
N         3.64937219929753    3.59615113005364    4.87205900442403
C         4.97044880682048    3.60098846401720    4.69894485560940
C         5.87877971820918    3.73309194384728    5.76359210197198
H         5.48527294703986    3.84697690735061    6.76313013710356
C         7.23606083074189    3.71589266668306    5.53112034096981
H         7.92319351323759    3.81727378994499    6.35893910886990
C         7.72133824301424    3.56898157593587    4.23855128413639
H         8.78608689210625    3.55422679471415    4.05905769860442
C         6.83736700254202    3.44286585629351    3.18126847276274
H         7.18856935684662    3.33018327046495    2.16578970154424
C         5.46676366139590    3.45609285149243    3.37591893365567
C         4.58338148334727    3.30813904158911    2.14820263381319
O         3.31032924663378    3.29087058112084    2.25885697912681
O         5.13602726500159    3.20375535830518    1.05949238919622
P         2.16622484571692    1.04389462423376    4.38022770584985
C         0.74206273791981    0.14957796385956    3.70497755183343
C         0.84601557285014   -0.98820277736708    2.91211419067830
H         1.81891603334760   -1.39276304249013    2.66974217719244
C        -0.30180360230051   -1.59921977052335    2.43708390256327
H        -0.22148439146358   -2.48110990738195    1.81814474290540
C        -1.54917079265910   -1.08403224350674    2.75077830494264
H        -2.44000581491326   -1.56159535440075    2.36999157484476
C        -1.65513658951374    0.04072132006147    3.55429712596275
H        -2.62822142840045    0.43758075636806    3.80440514823970
C        -0.51399947238940    0.65630642566489    4.03281688865848
H        -0.58440262348199    1.53634424706531    4.66012923191405
C         2.28707073710606    0.39724024846367    6.07649262955123
C         1.86734434257867   -0.89388236012712    6.37864090115495
H         1.44192294667290   -1.51920195888010    5.60602919866436
C         1.99038773275317   -1.37349899910524    7.67005382170556
H         1.66102921415518   -2.37548361011140    7.90345023654762
C         2.53061897798880   -0.57175214269391    8.66237686382515
H         2.62005522953756   -0.94935956503988    9.67028551568484
C         2.95009942191320    0.71440672280776    8.36362545315894
H         3.36557085212974    1.34125433901287    9.13845689250787
C         2.82930529125313    1.20056673787261    7.07475013573331
H         3.13855936374991    2.20808097088681    6.82904032895564
C         3.65974356119218    0.42576096408322    3.56564390849756
C         3.70792846034390    0.37691060500066    2.17375409284437
H         2.82213395145058    0.60168595213991    1.59769552988539
C         4.89467979720704    0.07941148148389    1.53200126453933
H         4.93078885928896    0.05949360247675    0.45378899181899
C         6.04269559386485   -0.15537780110894    2.27107415047396
H         6.97334280244814   -0.36814551339888    1.76684375191669
C         6.00165970700353   -0.10046045294535    3.65429981320209
H         6.89912728384154   -0.27139314017694    4.23071989601336
C         4.81680714358713    0.19334891281923    4.30378299005470
H         4.78793939869600    0.25325901987002    5.38295267669744
P         2.14323003308756    5.94010798568133    3.75354803326629
C         2.55570081077226    7.00296731504054    5.17188870605440
C         2.52118792044859    8.38626710036370    5.01816488585487
H         2.24675087130068    8.81398719660530    4.06355138077945
C         2.83787435264250    9.20604133900582    6.08444138010669
H         2.81068892026270   10.27928996621169    5.96461357215057
C         3.18712629150508    8.65205831863755    7.30656206648758
H         3.43146193378957    9.29631658079878    8.13834950801856
C         3.21852492510982    7.27661292815282    7.46177350721658
H         3.48495741879777    6.84648801267882    8.41563634537833
C         2.90285490777167    6.44936107867249    6.39760059593430
H         2.91237908659845    5.37363916662215    6.50860242943292
C         0.60061143686051    6.69543979466428    3.16753716494013
C         0.53847424794629    7.60697367434164    2.11936519391525
H         1.43934719010798    7.89239718414500    1.59352836433826
C        -0.68278493896108    8.14292725145159    1.74886357762100
H        -0.73150093368277    8.84835236967861    0.93191493998973
C        -1.83847156183779    7.77757058354768    2.41965904284584
H        -2.78861120602059    8.19592951321731    2.12152372064852
C        -1.77646699640207    6.87708288507345    3.47189206222074
H        -2.67708066138345    6.59528101172301    3.99721933767190
C        -0.56130084515947    6.33656299667476    3.84787424726325
H        -0.50172343836876    5.62823445824459    4.66509135472668
C         3.42720209188021    6.31402909831202    2.53705854511171
C         3.20808391118971    5.98858198017109    1.19944999303896
H         2.24029549469014    5.61722052587487    0.89108494419129
C         4.23347415580702    6.10552186561912    0.28205123498263
H         4.06524159149526    5.84021412052108   -0.75047079155187
C         5.48667649873875    6.52928578706009    0.69408451272833
H         6.29181420692789    6.60038086856482   -0.02138351295762
C         5.71434763382838    6.83472915314603    2.02513807961999
H         6.69690371952293    7.14395351573901    2.35057066339967
C         4.69179791316276    6.72203717661305    2.94954315133671
H         4.87333802748503    6.93669858082043    3.99397205381173
O         0.54501447981300    3.39513870462035    3.08433811878177
C        -0.09295980267101    3.43723631450581    1.88628489541379
H        -0.07379992943351    4.47699214678551    1.50332655509136
H        -1.15443454377973    3.16125355452265    2.02931301534001
C         0.55539922296643    2.51406263871187    0.84892357700292
H         1.62749082382523    2.70811340111622    0.83308757554278
H         0.13298306590829    2.70365199705521   -0.13465926598307
H         0.38321977991716    1.47204659215961    1.11549905102224

