33
CSD_code = QEYTIY | q = 0 | S = 0 | Stoichiometry = C7H15B9CoI | MND = 10
C         3.93506161255455    3.99294013135817    2.62759506630360
H         4.27390885917639    4.00124409689905    1.59353511952375
C         4.93650006587567    3.48470418124014    3.70732653024053
H         5.92022329381612    3.16579125548373    3.36852393369475
C         2.58936063733021    0.44480937074118    2.31561894953207
H         1.52637948112737    0.26706406694217    2.32025892223657
C         3.50875242504945   -0.01417092224970    3.29464635176797
H         3.25944574174691   -0.59785922216450    4.16566764648621
C         4.81239149107972    0.27317742182638    2.83167037859048
H         5.73173773611480   -0.02334502171155    3.30981812903402
C         4.70070610604362    0.90682423481085    1.57811450459817
H         5.52250224761173    1.19335314064906    0.94047038707653
C         3.33288746733522    1.01178075883033    1.25636933140549
H         2.92880076350058    1.37549920902020    0.32570756688614
B         2.33739888947416    3.63433181227188    3.03811209986846
H         1.53859177053555    3.45732062965364    2.18915473619235
B         4.69937766745183    5.18467607071206    3.60362860830195
H         5.55472860167041    5.81700522398029    3.10785829029965
B         4.14309817565992    2.71799741445733    4.98489987748986
H         4.68680565232886    1.85989217723427    5.58339352021597
B         3.51487088259381    5.53768399517958    4.86835403407949
H         3.47250532694943    6.58365366990174    5.39998644074163
B         2.42372066362602    2.87491449929430    4.62709234182359
B         2.04162387066480    4.60694051099455    4.50030198168135
H         0.96350202487882    4.99554466091351    4.76417126667465
B         3.00080462349420    5.29253723623532    3.17883726434908
H         2.63800675980524    6.08766691036833    2.39456864884740
B         4.82827583661794    4.36509885470522    5.14918858723235
H         5.79762556951397    4.48417387189591    5.80121133890004
B         3.19670792259191    4.02082136094005    5.74576629967468
H         2.93749791231706    3.99378769800014    6.89253806755161
I         0.88733908317327    1.54758050879114    5.42504177473719
Co        3.64166083829046    2.04336019279526    3.10587200396242

