40
CSD_code = QEYXIC | q = 0 | S = 0 | Stoichiometry = C16H19ClO3Os | MND = 9
C         2.68638086784936    5.30712689045902   15.94138142282173
C         3.59580987695106    6.22772313173482   15.38583672086481
C         4.97435327925237    5.89148870246562   15.46780455124910
C         5.39741060385576    4.73291428715812   16.14259342999153
C         4.97672448360909    2.82082326557752   17.74067890889298
C         3.14511610790511    7.52604381563319   14.75908616251535
C         2.10240873736808    7.29080557531097   13.66527125559009
C         2.60650689694708    8.46352870740445   15.84499929632691
C         2.71598802019175    2.32228033925608   12.63262625872455
C         1.87690859620102    1.64665058247295   11.71254118764884
C         2.37792609292189    0.57574671395812   11.03861818371828
O         3.60155510912975    0.10522014908291   11.20808089483285
C         4.44167391486534    0.67985306777464   12.09808942834847
C         4.05356763485080    1.77919631627604   12.83714784387034
O         4.79760719402558    2.35794134164198   13.73270077468944
C         5.78909031586803    0.04661332992090   12.20104721241193
Os        3.96389897075947    4.17184547478042   14.37159864290148
C         4.47276854745232    3.93503040189833   16.87812805450201
C         3.12283560095605    4.23138465957561   16.76416831149449
O         2.38221326000935    3.34891297871058   13.30507889548498
Cl        4.66939323418559    4.95013729667907   12.32832976151133
H         5.71272014769104    6.57217812388601   15.05710200392781
H         6.45590101572725    4.52492200242527   16.23553804038085
H         2.38836306502508    3.64745919852232   17.30215320502202
H         1.62534922871073    5.51840886191690   15.90004415605326
H         4.15436270239226    2.28143359467494   18.20460015006098
H         5.62392249576356    3.21574221376114   18.52412678667025
H         5.56241509685018    2.12210889279725   17.14477266232146
H         4.01797556478403    7.99622418194884   14.29459985359606
H         1.88198100681289    8.22598391805854   13.15674742741500
H         1.17661590665114    6.89949306396513   14.07916039238602
H         2.48783952471517    6.58043124794636   12.93652960398470
H         2.32728011095967    9.41806054529525   15.40605012573517
H         3.36126200945924    8.64198148684314   16.60842872507450
H         1.72812003371101    8.03513592349867   16.32290329827222
H         0.87450317344680    1.99768942453983   11.53783270141929
H         1.81891998160464    0.02004775470538   10.30041444084416
H         6.44802010629290    0.73289885862579   12.72419795109717
H         5.73868484059579   -0.89126421409785   12.75451338284456
H         6.18222664365542   -0.16340210707153   11.20877789449876

