40
CSD_code = QEYXOI | q = 0 | S = 0 | Stoichiometry = C16H19ClO3Ru | MND = 9
Ru        3.30715739287544    1.39575593310457    0.93556786312515
Cl        3.20717077036753    0.78614916135522    3.18443669318565
C         2.03770250966390    1.71488196137249   -0.92854443983649
C         1.41832758520863    0.73314553627871   -0.10304977919592
H         0.37385300936738    0.84635584010810    0.16597378069371
C         2.12391512344340   -0.42124546087239    0.28548636368184
H         1.61844738916103   -1.18229584019571    0.87251296698012
C         3.47058513881887   -0.62912913981979   -0.10655228307868
C         4.08536534887027    0.37615219738576   -0.88734179258827
H         5.10499705783165    0.23739500971342   -1.22959613996449
C         3.36640717400139    1.51228611874477   -1.33713695769089
H         3.84044266414879    2.21631920424853   -2.01075239299766
C         1.26304275480000    2.92473077415989   -1.35204201145506
H         1.79594644639953    3.48437286137497   -2.11726387016783
H         1.11448956371388    3.57481660409400   -0.48887272658863
H         0.28344779032475    2.63897727580913   -1.73296436462255
C         4.21676319537436   -1.87696590642689    0.30252260497170
H         3.54832131810711   -2.48027792090592    0.92651568503842
C         4.60622018326023   -2.70241527422931   -0.92735794684603
H         3.72613603510175   -2.95178842936741   -1.51719201520651
H         5.08521732872227   -3.62687933480557   -0.61485395712588
H         5.30141193367970   -2.15488097754390   -1.55963508781747
C         5.44344380688773   -1.51085290675294    1.14166652589342
H         6.18363942426977   -0.98445326319528    0.54386853184938
H         5.90232205586686   -2.40894869535638    1.54768387955512
H         5.14518091212826   -0.86588148953006    1.96829547787316
O         5.19046052227224    2.15060272337981    1.50084482621981
C         5.07580278771719    3.18038616265360    2.22740312850838
O         2.78021472840555    3.28440424459474    1.69227025769037
C         3.76186130454577    3.79657243587032    2.36537878437899
C         3.63351876942537    4.90665394818282    3.17920353050583
O         4.69704859715376    5.42333978114652    3.83219006737040
C         5.89485973057261    4.88877008030271    3.68935459909489
H         6.65048607885854    5.40099174522318    4.26682867976049
C         6.15341450621871    3.80508503074568    2.90806828745567
H         7.14686603058924    3.39822767950886    2.82763065557435
C         2.33519815540362    5.60304153479721    3.41835096839372
H         1.52909327676135    4.90850741493533    3.19911194075156
H         2.23335976372518    6.47331039735665    2.76937588275124
H         2.27296183595910    5.93488298255314    4.45171378387966

