53
CSD_code = QEZCII | q = 0 | S = 0 | Stoichiometry = C26H21Cl2NP2Pt | MND = 4
Pt        3.75878779613124   12.23265751519114    4.33961731248473
Cl        2.53367205229415   10.78480526378463    5.58593443239524
Cl        3.77470251190338   10.77879416514066    2.59738507049603
C         4.76226699600137   15.10986440682459    4.75046969217192
H         5.71488261214859   15.47851319062911    5.14647803114303
C         3.92162627008036   16.19942277242027    4.39931875826201
N         3.23955783708063   17.07271825248580    4.10782472381228
P         5.02034833192417   13.86635417144404    3.33388370636665
C         4.58681266022825   14.76640432203509    1.82381033914884
C         5.50648190146334   15.20360589940744    0.87824415971176
H         6.56246776235483   15.02326810855113    1.01930152117207
C         5.05627404992584   15.86157623950804   -0.25289807248791
H         5.76799568755091   16.20497330593204   -0.98902365477332
C         3.70147186390897   16.07552677850437   -0.44607088703009
H         3.35993185334176   16.59068657249546   -1.33126554596029
C         2.78186786984724   15.61506885747969    0.48377293700361
H         1.72536457695662   15.76513217446415    0.32279891585920
C         3.22183300182757   14.95273913005824    1.61192614354914
H         2.51644174322772   14.55747855173501    2.33393180890363
C         6.81857345468739   13.65884897123278    3.35524327989775
C         7.30162583081496   12.35525248815102    3.40794591519199
H         6.59476832668469   11.53342636994310    3.41286738775397
C         8.66572359755462   12.12823615597976    3.44898058990406
H         9.04317131495742   11.11782857849665    3.48845165420013
C         9.54454565210124   13.19927848639661    3.44007145241366
H        10.60948328335917   13.02375587281799    3.47155002629593
C         9.06398196804195   14.49949762148064    3.39206887976968
H         9.75357445726694   15.33085918566692    3.38555266105076
C         7.70228120903919   14.73546321224666    3.35145844566907
H         7.32516551888354   15.74966666299878    3.31283678628304
P         3.93555267237564   13.87299973195004    5.93612718361726
C         2.55433349004793   14.77631983647538    6.68087281912319
C         1.44423294248542   14.95315920050041    5.85674137478810
H         1.46350367388891   14.54915289061677    4.85090417357285
C         0.33076314216608   15.61704118903690    6.33046175457308
H        -0.52645972029470   15.75961418465931    5.69054740114835
C         0.31400573204182   16.08862087100853    7.63418956240051
H        -0.55719007352108   16.60478271011587    8.00863431424172
C         1.40379553791900   15.88442491005028    8.46435072175129
H         1.37914674826584   16.23644769857184    9.48505292784585
C         2.52659922308581   15.22500512550756    7.99575211195645
H         3.36938357429854   15.05251667649562    8.64954978607399
C         5.21105882066524   13.67455183245122    7.20531561955287
C         5.83017838394247   14.75602958144272    7.82746236974142
H         5.54112218334559   15.76844057522127    7.57490260153449
C         6.81213194461033   14.52723257698499    8.77348180281108
H         7.29278618423544   15.36244626550624    9.26148379239554
C         7.17905823183366   13.22928399268816    9.09677530604568
H         7.94684209656465   13.05937014589930    9.83673885061236
C         6.56669917591673   12.15335196544985    8.47474047445895
H         6.85613309016268   11.14473552096642    8.72749127335673
C         5.58291520874022   12.37317350833856    7.52717930275423
H         5.08892574563216   11.54759572655738    7.02787800498981

