121
CSD_code = QEZFOQ | q = 0 | S = 0 | Stoichiometry = C48H68N2O2Zr | MND = 6
Zr        5.99628282543883    7.88928118045299    3.69260748380365
N         7.13732269780925    6.56354301916142    1.85117355972053
N         7.19973682681798    9.43537038218100    2.02421067829141
O         4.61784518866860    8.34560083552848    2.42590262767238
O         7.66393871498732    7.41050401520267    4.50849394548313
C         8.80965282680592    6.76340630032970    4.39931863650733
C         9.88808698932010    6.96836963517319    5.30211104853353
C        11.08587257905718    6.31826612412781    5.07069791384496
H        11.90250785330527    6.48854570638774    5.75016429368454
C        11.29962024434541    5.44490408116161    4.00797862199321
C        10.22483532368110    5.20314492986063    3.17258321130870
H        10.30956705095531    4.50265323562112    2.35622138412838
C         9.00237234416240    5.83239881998222    3.35612987649802
C         7.85825984991565    5.43222478177923    2.45954889920129
H         8.25247715605575    4.77932847228024    1.66089601813547
H         7.13947520855298    4.84845601127583    3.04161588806506
C         8.08755387574812    7.34848708989763    1.05790640021492
H         8.30895918484052    6.84568895120702    0.10076114167375
H         9.02411570581634    7.41521528811183    1.62114702222025
C         7.55076799171867    8.74700531283077    0.77972647915357
H         8.30352571171293    9.32128854378162    0.21183649150780
H         6.64923083384775    8.68205069253431    0.16238305831195
C         6.30785388823846   10.56241079683573    1.70442218417895
H         6.85378209732399   11.29709428121491    1.08568918553349
H         6.03839432586122   11.05728401905422    2.64531853286039
C         5.04733333132547   10.17050408684694    0.96973466865129
C         4.69066651158012   10.90978645917749   -0.14537048621978
H         5.36196554673833   11.69279133773274   -0.46994939646716
C         3.51159967295984   10.67901750446027   -0.83633275576415
C         2.66362521015142    9.70659377324455   -0.32220111561219
H         1.72290640054885    9.53965932178366   -0.81237210814989
C         2.96690963061474    8.94187293577301    0.79203245937677
C         4.22000562080822    9.12225393551830    1.43649462397492
C         5.51347410204936    9.76584283277174    4.92296302928257
H         6.38967468644922   10.41101527059246    5.08722852954490
H         4.75891804059868   10.30569955639475    4.33150174400013
C         4.93479076492861    9.35280757545421    6.20377036439625
C         3.57154500837184    9.03130293610714    6.31344446543811
H         2.93644241478490    9.13337415497165    5.44135756347511
C         3.02719606302296    8.60278357278829    7.50654546901706
H         1.97475137257907    8.36003800946729    7.55899399570919
C         3.81733373750901    8.48995801168167    8.64072474677731
H         3.39117540359108    8.15086083953362    9.57323696773922
C         5.15587123714984    8.83924992204689    8.56575779020963
H         5.77567624891206    8.78218124107681    9.45029581641396
C         5.70257332277195    9.27391807744018    7.37441957096283
H         6.74079415517480    9.57262477169243    7.34242293916180
C         4.74918252149126    6.38616587121901    4.87031145882581
H         4.89424875278376    6.66921991813885    5.92134954924696
H         3.69024118290790    6.48382651188553    4.59662018925734
C         5.24533840660916    5.03971444821242    4.62903318959698
C         6.32813231510289    4.52045677643421    5.36640172640481
H         6.76920610631011    5.13092269231042    6.14331330540257
C         6.82882021191375    3.25929135256756    5.12098519380528
H         7.66483099471197    2.89357539403659    5.70050016932877
C         6.26335930324120    2.45162907730458    4.14260662006389
H         6.65512541282068    1.46342352555616    3.95404572149072
C         5.17031028031320    2.92175110737138    3.43128197611286
H         4.69935220764842    2.29018122152696    2.68976407737500
C         4.66504907008558    4.18536144367446    3.67192763240429
H         3.78323729406546    4.51600974052994    3.13606456801782
C         9.70047196309437    7.84709405765249    6.53514109047113
C         9.35553760927967    9.27849678129975    6.10459932390714
H         9.24722686766453    9.91734167127838    6.97962505310860
H         8.42092164798890    9.27696861089902    5.54682919461020
H        10.14962146601524    9.68576650023790    5.47964469476918
C         8.55542422462072    7.25934703878857    7.37163704351279
H         8.78945746890214    6.23347064643542    7.65080843879660
H         7.62602229510469    7.26923462794520    6.80427567198809
H         8.41271347136994    7.83927520734488    8.28108567718303
C        10.94532484463239    7.91477293184670    7.42710906905329
H        11.22288401974577    6.92942311408924    7.79365326887091
H        10.72893870396635    8.54182147651327    8.29011691182906
H        11.78951571933875    8.35429781900698    6.89981294413460
C        12.66159572127707    4.79085784936509    3.83427337637454
C        12.97760185026417    3.94734757147961    5.07710874262896
H        12.20924440125371    3.19075085176138    5.22028960533623
H        13.01929688206144    4.56262075589351    5.97133938288625
H        13.93797992742516    3.44891639712634    4.96084879164232
C        13.72917140561687    5.88095892374248    3.66325880502622
H        14.71077152094934    5.42971274906022    3.53309974645046
H        13.76801564965878    6.53513762485609    4.52957048232614
H        13.50926704140636    6.48818795320602    2.78733835922797
C        12.71984975783716    3.87345551679885    2.60970914801052
H        12.00874375589445    3.05599982665757    2.70107448740398
H        13.71622857297412    3.44416496143182    2.52393909272358
H        12.51200533592473    4.42675961682125    1.69653337742985
C         3.19007025137827   11.49535128311743   -2.07896011275121
C         4.31001677563522   11.30023961516981   -3.11140143256978
H         4.39970057350357   10.24780164416471   -3.37292777041118
H         5.26748668530161   11.63845381649292   -2.72494362976440
H         4.09072442337533   11.86335393763780   -4.01625530390193
C         1.86813435411370   11.08367111473132   -2.73235500007900
H         1.03058164959520   11.24930709456622   -2.05920329769666
H         1.88755029449572   10.03716741356111   -3.02762381016132
H         1.70304699704325   11.68279934644326   -3.62583937135815
C         3.09238755647997   12.97876628485850   -1.69648180624057
H         2.84642106073003   13.57842406046699   -2.57057067090881
H         4.03003563022730   13.34299447466627   -1.28586167357020
H         2.31565654184725   13.12177709106800   -0.94849978670401
C         1.94995542685467    7.95630852905863    1.36232217981274
C         0.62605711810775    7.93469483814522    0.59071966437190
H        -0.05453499391167    7.23744566567053    1.07580982792185
H         0.76905006396988    7.60146409577119   -0.43488166954988
H         0.15311430678713    8.91380909198083    0.58827098659300
C         1.64578730985324    8.36940323280129    2.80933166626561
H         1.21620988509554    9.36937777658418    2.83198741559019
H         2.56288156391635    8.36636967854695    3.39635844920382
H         0.93774592211521    7.67692396441566    3.26084357910945
C         2.52604977565190    6.53517639200883    1.34992024170718
H         3.40783047901666    6.49475479378249    1.98567154989383
H         2.79775061369458    6.24281852102770    0.33663554629920
H         1.78630615113224    5.82995324722092    1.72511551973318
C         6.08785415227287    6.02227100174746    0.98788377957968
H         6.52095035520290    5.43005549358048    0.16505354757114
H         5.48906637088398    6.82614044077821    0.55932618754029
H         5.43898363183361    5.36831149014181    1.57376062122164
C         8.40691211948225    9.95744747524462    2.66316274187642
H         9.04684674238696    9.14057263049292    2.99836102662613
H         8.13486535064270   10.56192996594075    3.52935596754400
H         8.98037289996413   10.59279570326104    1.96804421640023

