71
CSD_code = QEZFAF | q = 0 | S = 0 | Stoichiometry = C40H20N6O4Zn | MND = 5
Zn        7.08529734176591    2.58680936775869    3.52184062130555
N         7.32843116837565    2.17426505677546    1.70266242084531
N         8.58776656808015    1.57920739659686   -0.07945182111083
N         9.29020424980255    2.19424482394333    3.41702255057110
N         6.87485340452821    3.02731354198658    5.33844998339383
N         6.73489454665969    4.49330511333826    7.05521856310603
N         7.26011732635334    4.82264243001357    3.48972111479056
O         4.94715394828224    2.82784770375912    2.89563461275935
O         2.55060002462221    2.37037163447210   -1.94349957934104
O         6.82324818023253    0.49612551757481    4.28408695762432
O         6.09661544054746   -1.43262601147719    9.29630007913495
C         6.50910756671500    2.11290341926694    0.64852620622586
C         5.13638973152539    2.35645567419224    0.58188792061246
C         4.41423657075186    2.71560801937552    1.78572864194158
C         2.96672055889827    2.95231329536992    1.61791057265085
C         2.20084984709390    3.30332168211958    2.72741011351613
H         2.69658635976729    3.38806969309709    3.68324152345091
C         0.84345281639526    3.53451108838129    2.60179610917382
H         0.25972641087425    3.80539725073559    3.46895902487028
C         0.23409188792490    3.41749870528304    1.36137689317179
H        -0.82579919753673    3.59738283663895    1.25971771289330
C         0.98482575027951    3.06949364868008    0.25271203107815
H         0.52959081279094    2.97273793474723   -0.72198278359790
C         2.35179795959383    2.83331848523441    0.36343019067257
C         3.10641229824577    2.46244405398831   -0.86297002875294
C         4.54605606538269    2.22185051879491   -0.68531297173440
C         5.31984553146267    1.85881537958024   -1.79795239085480
H         4.80352719653536    1.77252102161312   -2.74308788051906
C         6.67992128425482    1.61330243198602   -1.72809631551320
H         7.24252574982954    1.33411332536348   -2.60515901391293
C         7.30003093836032    1.73825105807754   -0.49043004132509
C         8.55114555940771    1.84456356957378    1.21915625594452
C         9.63604375327202    1.82879101830694    2.17459902660634
C        10.21632754971644    2.19291985356082    4.35863756014893
H         9.88918562639348    2.49328198582320    5.34521272354424
C        11.53436812490567    1.83370926724869    4.12105446881296
H        12.25476591828716    1.84679427375341    4.92351826038553
C        11.89961773278353    1.45977787445381    2.83451903603214
H        12.91796318382998    1.17496681061299    2.61439871326334
C        10.93777056986920    1.45646720127892    1.84246708033904
H        11.15425595099942    1.17461172499912    0.82490940713022
C         6.68054239936809    2.31024305153774    6.44947097722687
C         6.57165169390214    0.92689261827376    6.59980315951433
C         6.65183648163591    0.07187743587089    5.43263944403794
C         6.51692512222749   -1.37583395761224    5.68856343218600
C         6.57981498432936   -2.26554510851141    4.61841229244928
H         6.72411242886446   -1.86171995086606    3.62712803179256
C         6.45885242110740   -3.62714997514097    4.82624069911401
H         6.50831725866075   -4.30726711199245    3.98893964883626
C         6.27374324133265   -4.11675412431699    6.11063949662913
H         6.17875232920981   -5.17955647125682    6.27648947034964
C         6.21003284496955   -3.24250295148083    7.18089986252890
H         6.06597087897859   -3.60319107689364    8.18876186033682
C         6.32942217523865   -1.86956386798789    6.98746668328996
C         6.25204377899061   -0.97927691513347    8.17590674584341
C         6.37597501951333    0.46160447515328    7.91039925480437
C         6.29673517323576    1.36251220336987    8.98303795514650
H         6.14549606827580    0.93843639532586    9.96517594038326
C         6.39932679597559    2.73404519834926    8.83036718280626
H         6.33042783923567    3.39686435796875    9.67868403616018
C         6.59366720620749    3.23224957602248    7.54742050325954
C         6.89425306286185    4.31858014455488    5.75055015807819
C         7.07996853111141    5.31769995839523    4.72226496568922
C         7.41723914892308    5.66565300908230    2.48523982025056
H         7.55704210926145    5.21924897456549    1.50964942192187
C         7.40785108570311    7.04282928482261    2.64653731346301
H         7.53773753582708    7.69113708413671    1.79453124592143
C         7.22818839847498    7.56122570783114    3.92222654909099
H         7.21673248925013    8.62913105762183    4.08370257277807
C         7.06197380519818    6.68765915745381    4.97985505730434
H         6.91524538435945    7.02417214393065    5.99323266942073

