47
CSD_code = QEZGOS | q = 1 | S = 0 | Stoichiometry = C18H20CoN4O2S2(1+) | MND = 6
Co        3.49495988099032    3.92156545926692    5.94356323873786
S         3.77204569338694    2.30680918313570    4.27761870678255
N         3.35805055530630    2.59283234500325    7.31546085571892
C         4.33494865864076    2.01648887951089    8.01457946866889
H         5.34801951162131    2.32912862716824    7.80414086789863
C         4.08083939024872    1.06470918210688    8.98656811480397
H         4.90407510603059    0.62617899073044    9.52716321067669
C         2.76883769417360    0.69467561062662    9.25073678333303
H         2.54583681195115   -0.04710829497563   10.00156470011739
C         1.75615880989433    1.30703506278628    8.53470101232843
H         0.71022343009561    1.08651964364318    8.68420283446392
C         2.09002873463576    2.25483990981797    7.57882505380729
C         1.03623709495942    2.97705599629133    6.78694392475435
N         1.61278850583976    3.83865443638998    5.94670001688481
C         0.74544138761761    4.62217252358080    5.08977945040404
H        -0.17383288194842    4.86935775171031    5.63557296721294
H         0.44298870464773    4.02352816350564    4.21929220208672
C         5.52681632620597    1.95418634988421    4.65678426056756
H         5.48579863220403    1.21978565958231    5.46078659645446
H         5.97531084011654    1.49634230653603    3.77649982999731
C         3.97302065481501    3.33663900524052    2.76523639874544
H         5.00552841138391    3.67805861857129    2.73061291338919
H         3.77487912438489    2.68511247572478    1.91261193010622
O        -0.15795702530777    2.78956951885577    6.93872901331243
S         3.21803982076131    5.53579175909674    4.27713076712070
N         3.63174437718620    5.25033701776880    7.31547563982065
C         2.65480539688961    5.82648145431361    8.01470596890280
H         1.64174727361988    5.51386979306694    7.80416945116159
C         2.90884846145364    6.77801195787053    8.98695585164544
H         2.08558094246479    7.21633426491171    9.52767171853870
C         4.22082375250054    7.14805109169668    9.25124030950893
H         4.44377172715207    7.88965110111883   10.00226653861438
C         5.23354371241848    6.53594357445640    8.53504717905301
H         6.27946290852962    6.75649878729233    8.68460582436671
C         4.89974318909417    5.58832792868046    7.57895838845323
C         5.95359145763315    4.86629871129106    6.78698591768716
N         5.37711416354188    4.00462292423215    5.94676573062690
C         6.24449114952150    3.22136240705350    5.08965260578015
H         7.16402724386121    2.97459926207584    5.63519345805291
H         6.54641409439017    3.82003242640972    4.21899700010278
C         1.46345457627948    5.88903424304114    4.65654289556814
H         1.50487092465988    6.62356332928684    5.46040864191973
H         1.01493514476421    6.34687023102429    3.77626559372974
C         3.01641484155485    4.50536590601224    2.76522745241333
H         1.98390269191407    4.16389939903040    2.73119739041356
H         3.21416166840713    5.15655647614072    1.91225647230669
O         7.14776642950836    5.05395854943540    6.93870485295948

