90
CSD_code = QEZGEI | q = 0 | S = 0 | Stoichiometry = C49H34CdN6 | MND = 5
Cd        0.46991231181334   -3.49273857457475   10.45156111076786
N         0.08832742960693   -1.54108383336848    9.73101596225701
N         2.42592824895823   -2.85409275460920   10.91309382642949
N         1.14004866714202   -5.46982967350958   10.54379775683112
N        -1.19440051563177   -4.14847579617633    9.35314180602340
N        -0.95677889319139   -3.23657478969408   12.39257216012447
N        -0.08138604230620   -1.16824517236963   12.88152284196596
H         0.80618358609547   -1.56770728248552   12.60605836461235
H        -0.17287222696673   -0.17130177974790   12.77522107589288
C        -2.21394628748949   -3.35234595510035    8.94894565936520
C        -2.19760809254354   -1.94962739092560    8.92242402295825
C        -3.43652315960835   -1.27468833575158    8.47721379845251
C        -4.61571528241971   -1.42040030405298    9.20226450454593
H        -4.61025733962639   -2.02972630520312   10.09467541132495
C        -5.77441644657264   -0.78578235149470    8.79358629250954
H        -6.68292521973649   -0.90379025189180    9.36670995765565
C        -5.77298086515230   -0.00084596237374    7.65246224266976
H        -6.67878380549919    0.49294995609282    7.33272242721893
C        -4.60527586995771    0.14713805567484    6.92281399425362
H        -4.59960691283021    0.75552173938886    6.02997260940824
C        -3.44415003590972   -0.48285120374574    7.33266660571551
H        -2.53428797799004   -0.37423767436008    6.76023255920095
C        -1.12637703939368   -1.12265517056422    9.29456147591977
C        -1.16580775311665    0.31810785466413    9.31598590211896
H        -2.00907769306342    0.92271901256007    9.04219159394572
C         0.04428646459967    0.73971071331934    9.75805350737168
H         0.36932579208850    1.75110928819765    9.91273070392684
C         0.82841234331007   -0.44117576100111   10.01999475823240
C         2.12588169698713   -0.44016994048030   10.55985370612933
C         2.76570415182906    0.87898852379779   10.75416672364710
C         3.01816126377264    1.71084064518136    9.66698052324879
H         2.75208770162025    1.37590516595899    8.67495907534543
C         3.61566442880468    2.94428169993039    9.85062714420829
H         3.81192483364147    3.57814953831812    8.99804640813034
C         3.96386623669154    3.36716201548492   11.12275733626866
H         4.42938939375611    4.33116457980457   11.26550279521122
C         3.71307767590266    2.54831200615537   12.21111484547066
H         3.98036980051679    2.87420860833999   13.20599670424689
C         3.11992400414912    1.31229046992781   12.02925402014417
H         2.92074512480231    0.67589947787231   12.88041101698531
C         2.86353227949313   -1.56957801655825   10.95134608194302
C         4.21984242110188   -1.54705411357032   11.43877288840997
H         4.82439586925463   -0.66854621622085   11.55781858429617
C         4.57107602911536   -2.83255220893190   11.68517180037145
H         5.50693074199544   -3.19232594175341   12.06700591659384
C         3.43847299125091   -3.65320179544117   11.33531168761964
C         3.40606992384917   -5.05461241934211   11.40118245514359
C         4.62539055204963   -5.73469851925316   11.89352834167328
C         5.82340809335941   -5.64918644476426   11.19063186647843
H         5.85696306017920   -5.08367401812433   10.27052616859413
C         6.95576327941025   -6.29411699542518   11.65412065240053
H         7.87909423377138   -6.22442841729998   11.09730376145223
C         6.90793782377781   -7.02935357090090   12.82676809603273
H         7.79329138082998   -7.53123394498166   13.18856108560991
C         5.71960090067864   -7.12060450067818   13.53210210081377
H         5.67690998728178   -7.69336040572525   14.44730913541200
C         4.58481836611915   -6.48094016459976   13.06765485755609
H         3.65712419002895   -6.54838614659038   13.61771758518127
C         2.34548819679754   -5.88410661916581   11.00420390410120
C         2.40480439136189   -7.32419184440684   10.94282059167621
H         3.24882916606523   -7.92463591550913   11.22344801147655
C         1.21934920606518   -7.74599546439868   10.44105302401088
H         0.91820163942052   -8.75462794253087   10.23216612356648
C         0.42622690114647   -6.56688844682383   10.19130341683155
C        -0.85750989840531   -6.56708352227793    9.62158700440482
C        -1.48075196885745   -7.88775688711630    9.38812500401709
C        -1.73484211506075   -8.74574023448554   10.45483102410091
H        -1.47794016757755   -8.43355237040682   11.45720935326515
C        -2.31957035342121   -9.98026097824337   10.23947993979638
H        -2.51534267156184  -10.63523561095204   11.07625115882991
C        -2.65368299750977  -10.37768853463014    8.95557848678793
H        -3.10804628002289  -11.34306157053127    8.78773300345146
C        -2.40118981992927   -9.53262786152753    7.88767329711533
H        -2.65597665229862   -9.83984372095528    6.88365205438785
C        -1.82143886749714   -8.29547333769200    8.10137827666375
H        -1.61529294404657   -7.63905177021192    7.26835900248129
C        -1.60405796346001   -5.43675635727178    9.25105296941481
C        -2.95120743405958   -5.46451024378168    8.73673921755197
H        -3.53358970473421   -6.34841834693843    8.56014170845152
C        -3.32556146621601   -4.17684848683791    8.54398085437375
H        -4.25924446985200   -3.81773096777255    8.15566150771929
C        -2.01102806822426   -4.04899851422798   12.30675210189308
H        -1.77948837805892   -5.09296427801122   12.13116801700483
C        -3.31599618636322   -3.62398042278675   12.43859793967679
H        -4.13217046586161   -4.32324879118242   12.35609812855679
C        -3.54761577033159   -2.26806319481229   12.66116799045290
H        -4.55572677524076   -1.89024901573026   12.75263575593300
C        -2.47496186603666   -1.41672529861273   12.77778949396326
H        -2.60994935826079   -0.36159418005513   12.95882120176541
C        -1.17678267860547   -1.94094851714549   12.65264413994768

