85
CSD_code = QEZGAG | q = 0 | S = 0 | Stoichiometry = C40H32CdCl2N4O6 | MND = 6
Cd       -0.24141636112592    0.00198564393319   11.33016051326339
Cl        2.55292688306830   -0.91600387586891   11.17905012462260
O        -1.90044191091579    0.05260867923465   12.41069187619601
O         1.41401340135706   15.66399202445974   14.47928253389922
O         3.32105355376960   14.80336078953843   13.62155353329776
N         0.27311981250121    2.19799914582470   11.15018011828334
N         1.67738659541403    9.16778782020777   17.23459048324602
C         1.55513571175422    2.50807380613271   11.36773550493008
H         2.28888177560371    1.89423714817867   10.85843965405622
C        -0.65263089175503    2.95563680692063   11.74750762055323
H        -1.68386112021792    2.69524254303369   11.54064798235441
C        -0.35148419202213    4.00887744170724   12.58330423985797
H        -1.15516852531236    4.57273837532227   13.02694853864724
C         1.95183891916793    3.54541377646420   12.18290889399091
H         3.00335084812089    3.74295438231465   12.32598089723058
C         0.98996013580900    4.32453501450928   12.84687250329603
C         1.41243165944361    5.37281994250538   13.73284830912625
H         2.47554455228086    5.56996454418369   13.73075827405680
C         0.59906635720615    6.07640875954349   14.56323913622336
H        -0.45518041292310    5.83895953146121   14.58493117198720
C         0.99985881301703    7.11047866009661   15.44991504848118
C         2.32353748761233    7.60793604246682   15.56380873034329
H         3.11277582551272    7.20052818024156   14.95542359392724
C         0.04527783552382    7.72617399616677   16.29751911437519
H        -0.98138041022325    7.39736940622720   16.26854443814430
C         0.40012434360988    8.72485195056737   17.15113794171102
H        -0.31787569994612    9.19630018977951   17.80401430195398
C         2.61876946962604    8.61073238002608   16.43272197060179
H         3.61577587654250    9.01296233902962   16.52067182573549
C         2.01557149645151   10.32902646241708   18.03438258588574
H         2.97253069432958   10.15401865791127   18.53130636705432
H         1.24356750880666   10.46927605773487   18.79374338246017
C         2.10657235690637   11.54489774400307   17.13442545107475
C         3.34003422502868   12.07403870053166   16.78406130564968
H         4.24819765655995   11.65892738924050   17.19867385703603
C         0.94747709039310   12.09621178537669   16.60345988831526
H        -0.01816858313625   11.68965120527906   16.87049153589039
C         1.01918137707162   13.16926685128900   15.73242512745785
H         0.12464041395071   13.61581070568814   15.32736786844743
C         3.41673302853107   13.14215887218832   15.90488332583996
H         4.37178798221282   13.55164128582036   15.61514530813723
C         2.25617045214961   13.67486076576258   15.37738413824841
C         2.34383818483429   14.88408432997016   14.34799872865175
Cl       -1.36213110194421    0.69890303864402   13.85090288091681
O         1.35929432233314   -0.62409604994545   12.29051448759390
O        -1.42716600963120  -15.61615385168189    8.30027169926201
O        -3.42832404544435  -14.92651053260823    9.09537492564954
N        -0.78756677366089   -1.58854193617847    9.87702143646726
N        -2.24282983959748   -9.43161569004857    4.98218965801877
C        -1.95555787775761   -2.19127291216172   10.11534874534844
H        -2.60321831647161   -1.69756975191705   10.83068104011129
C         0.05235000932434   -2.16871529761556    9.01760547998559
H         0.99795272780930   -1.66412288777806    8.86020348783583
C        -0.23318852556433   -3.34523147118389    8.36026422748679
H         0.49479112449714   -3.75511322262386    7.67967263472129
C        -2.32685536479248   -3.36663030960623    9.50054029578743
H        -3.28429199487769   -3.81048531374094    9.72732405838598
C        -1.46133970441725   -3.99029858196868    8.58427315363021
C        -1.86743295866655   -5.20590966959497    7.94163870290977
H        -2.85540418985474   -5.55261588802629    8.21090352159839
C        -1.12663093650425   -5.92173998946398    7.05176586139196
H        -0.13397869362190   -5.57500227577330    6.80022156155300
C        -1.52909210309767   -7.11033511794670    6.39253756683688
C        -2.79113673954157   -7.74042832644133    6.55801767958905
H        -3.51780384983672   -7.33234813709256    7.23950711325066
C        -0.64771662816240   -7.75128932341720    5.48398718377647
H         0.33435139415680   -7.33828798999108    5.31626628834302
C        -1.01698278730186   -8.87771527562287    4.81740643994511
H        -0.35581950107458   -9.36827666857955    4.11992604507490
C        -3.10507734839001   -8.86589390393870    5.86526048683108
H        -4.05389139102366   -9.36489387853754    5.98546521894819
C        -2.59768186411354  -10.68283322001404    4.34196222670350
H        -3.60017361128982  -10.59271344387419    3.91565092186406
H        -1.88864159408389  -10.87405107356755    3.53346847644925
C        -2.56354665201071  -11.80927697706015    5.35410953792118
C        -3.73773699767517  -12.40968956791735    5.78408128945432
H        -4.68820786032801  -12.10563857792647    5.36768783484952
C        -1.34811701520266  -12.21532704809121    5.89053714688482
H        -0.42878082920416  -11.74950120145444    5.56285861894705
C        -1.30500677345657  -13.21820012685902    6.84304136168093
H        -0.36587624381731  -13.55381777126819    7.25421004524778
C        -3.69992871874252  -13.40861882784881    6.74332415641215
H        -4.60766678214177  -13.87466085234040    7.09345963247019
C        -2.48428514625835  -13.80070916391855    7.26992860109951
C        -2.44117702507851  -14.94156719048564    8.37855052416029

