119
CSD_code = QEZJUB | q = 0 | S = 0 | Stoichiometry = C60H48N4O2P2RuS2 | MND = 6
Ru        0.00259967225961   -0.00372695266164   -0.00096404554820
P         0.91366699396500    2.13836972156862    0.12180085195770
N        -0.44483039890481    0.12722424910984    1.92191493040863
N         0.61117709428139   -0.00969143780667    2.75553712523985
C         1.70571055238179   -0.42470573726190    2.15034275472876
O         1.75896254422753   -0.71751597328916    0.91468763331537
C        -1.60526237502866    0.28928465181359    2.48059786002834
H        -2.43831872447572    0.49089069852882    1.81976186602329
C        -1.84023370634214    0.23079721894278    3.87659008913368
C        -3.04608152009793    0.34549259303922    4.53161830769570
H        -3.97346063262731    0.52626215150241    4.01750785181418
C        -2.92872802430999    0.19888220866155    5.92180738744971
H        -3.76266452205505    0.25580772685953    6.59984472450999
C        -1.64403036154503   -0.02258871830422    6.31475208082992
H        -1.28080923673504   -0.16410376882729    7.31357052763633
S        -0.54074463458951   -0.05972669414922    4.99183251274287
C         2.91959381828804   -0.57445474699274    2.97452281861306
C         3.02827769453056    0.06351993892552    4.20593567869041
H         2.19309276218105    0.63846721630929    4.57098417423208
C         4.19568722802436   -0.04557312709396    4.93652519885740
H         4.28135257676759    0.45445408197517    5.89020584296541
C         5.25768107559079   -0.79165397057795    4.45014412234032
H         6.16939087913802   -0.87316772544739    5.02429379849013
C         5.15002691746517   -1.43421533336285    3.22763295751888
H         5.97613766077426   -2.01959773913705    2.85004263434637
C         3.98772589960463   -1.32351279467536    2.48926106271489
H         3.88980316512739   -1.81315821476576    1.53117131345961
C         1.19874545162605    2.84042857581368   -1.53812296382918
C         2.45780885461533    3.11444156649973   -2.05939245292969
H         3.33375382452087    3.04124090901685   -1.43105161001077
C         2.59459479053672    3.47939250642191   -3.38791132923393
H         3.57832596436905    3.68126816143665   -3.78621388990587
C         1.48374205915937    3.57192584533338   -4.20802344724171
H         1.59940470003321    3.83423534256280   -5.24911947546244
C         0.22261536447579    3.32107844906186   -3.69125338520994
H        -0.64992259119673    3.38844861488909   -4.32418872980928
C         0.08158737422920    2.95858739614958   -2.36621245409183
H        -0.90197271726791    2.75467792527171   -1.96372583931913
C         2.54290148657452    2.29549216661954    0.93094493449771
C         2.80893254091220    3.16377257898381    1.98315287758841
H         2.04573485304939    3.83991096667760    2.33906049128058
C         4.05696561513861    3.16796294436042    2.58203198541798
H         4.24946029868107    3.84070638618106    3.40493144033199
C         5.05317963067758    2.31787673813556    2.13563433473359
H         6.02131706069716    2.31745882030951    2.61372131701218
C         4.80327368730105    1.46537923225623    1.07296408672842
H         5.57856564467509    0.80376091773665    0.71554546822366
C         3.55693994224566    1.45217332767492    0.47791548448097
H         3.35038080300454    0.77114949947231   -0.33575765004665
C        -0.09096271470892    3.39145931959414    0.99002108512692
C        -0.65479735907591    4.49701881960132    0.36326057113082
H        -0.45086122669412    4.69503432463267   -0.67880985484080
C        -1.47180768578465    5.35937892870441    1.07452934858015
H        -1.90475084089141    6.21485795953986    0.57620428127427
C        -1.73639179464471    5.13055412011384    2.41382993033053
H        -2.38326907335441    5.80065067809422    2.96080799207002
C        -1.16056833523864    4.04375675760286    3.05201046041688
H        -1.35091267968189    3.86370096198457    4.10013510458243
C        -0.34192655533945    3.18163577271461    2.34797880458715
H         0.12405876037766    2.35107499658711    2.85989676821806
P        -0.90787248573774   -2.14606589513627   -0.12407510238228
N         0.44713239207866   -0.13056635654614   -1.92574355514492
N        -0.61281502563237    0.00097287641341   -2.75566436674578
C        -1.70662697620515    0.41361349583087   -2.14757975773869
O        -1.75636513635211    0.70843154337924   -0.91229460805100
C         1.60742741550767   -0.27480633553097   -2.48970600859883
H         2.44547354754419   -0.47111609034307   -1.83370368477330
C         1.83684463325785   -0.20023798978620   -3.88583007650013
C         3.04266241466511   -0.28679046263116   -4.54520499407201
H         3.97451698556406   -0.45630662844869   -4.03542402266863
C         2.91888760758538   -0.12706170219534   -5.93334640163868
H         3.75182250801389   -0.16137474271386   -6.61411452478020
C         1.62936866173266    0.07556403900582   -6.32058600689648
H         1.26117348589131    0.22124887707667   -7.31697178515371
S         0.52938404536169    0.07956361451289   -4.99444921131161
C        -2.92358051366114    0.55920632982549   -2.96791030465687
C        -3.03452373289857   -0.07935608997038   -4.19882318995004
H        -2.19868417309541   -0.65142109106890   -4.56685325371984
C        -4.20522857359581    0.02508862362237   -4.92482181841210
H        -4.29288868246587   -0.47578094663002   -5.87786864160281
C        -5.26818627777060    0.76720146259716   -4.43451834327405
H        -6.18251549082303    0.84490510893756   -5.00500247821870
C        -5.15815500373130    1.41067773015456   -3.21270151146943
H        -5.98494573485734    1.99309754574969   -2.83208138898348
C        -3.99260680332496    1.30448177090443   -2.47885418227643
H        -3.89267749642546    1.79479301546282   -1.52133184619922
C        -1.18947091610405   -2.85031867270551    1.53565535365352
C        -2.44620936659375   -3.12948654726139    2.05970325473079
H        -3.32403336552090   -3.05913718581086    1.43375320477799
C        -2.57823547294426   -3.49703670138445    3.38797055736088
H        -3.56020072244325   -3.70356490811556    3.78818035330300
C        -1.46513522640213   -3.58675210471104    4.20534075565737
H        -1.57731524252952   -3.85091982578663    5.24632113923604
C        -0.20606923573351   -3.33222978100292    3.68541073483669
H         0.66840995160242   -3.39856768513869    4.31573561977548
C        -0.06974902668406   -2.96819814224665    2.36034607263563
H         0.91231163409921   -2.76402428958945    1.95449584740622
C        -2.53929268221458   -2.29646012147566   -0.92955857663406
C        -2.80644330353560   -3.14571593176492   -1.99680594390191
H        -2.04259420158389   -3.81294767301263   -2.36765831704060
C        -4.05637006168698   -3.14193228701433   -2.59178775079990
H        -4.24958721167634   -3.79901482034563   -3.42702229113655
C        -5.05342699957941   -2.30311189061461   -2.12648564782743
H        -6.02317008787532   -2.29656732760431   -2.60115463847004
C        -4.80181071930735   -1.46879391392231   -1.04979625900464
H        -5.57760400856439   -0.81580797978614   -0.67796713243566
C        -3.55340888772972   -1.46265921516541   -0.45920430783358
H        -3.34533407542371   -0.79553022486886    0.36549919496020
C         0.09201924683311   -3.40166983292736   -0.99441507061743
C         0.64447343036195   -4.51428252603009   -0.36986600952444
H         0.43552882025012   -4.71422415219981    0.67088180917268
C         1.45697358641083   -5.38067965456603   -1.08137267028536
H         1.88113218517926   -6.24152378605231   -0.58471969859046
C         1.72825951795383   -5.14909979193089   -2.41888419137690
H         2.37150634153789   -5.82251799286317   -2.96608753423706
C         1.16404977310785   -4.05496579319561   -3.05482833933269
H         1.35980315289148   -3.87233550200103   -4.10152811860924
C         0.35006648829631   -3.18864033414168   -2.35048320904871
H        -0.10596243571734   -2.35179614061398   -2.86092287045609

