36
CSD_code = QEZJAH | q = 1 | S = 0 | Stoichiometry = C15H17O3Ti(1+) | MND = 12
Ti        0.66030718235299   13.19369727482577    7.75753318020627
O         1.37547106142043   11.81909558403504    8.70771451505518
O         1.94816863519679   12.95428638136203    6.41682282454950
O         3.57564294320145   11.98506806753446    5.22572686421123
C         0.62307249626855   15.52237745586806    7.86495870203372
H         0.16520871662197   16.21589160350084    7.17040996580437
C         0.03501900652414   15.02005377514587    9.04975963078951
H        -0.95137562562956   15.26593017715609    9.42066687975566
C         1.02794527073997   14.31638736716106    9.76659394147585
H         0.91892785933220   13.90099574992649   10.76143952030544
C         2.24004756918808   14.41279084399915    9.04048129652779
H         3.20813228737762   14.05934977784138    9.37340514503533
C         1.98959011171064   15.16016037411652    7.87251430182384
H         2.73553248236363   15.49833396439843    7.16414932603491
C        -0.49019401849202   11.68216847496140    6.31131568088968
H        -0.05015883410000   10.92101261777066    5.67886241334072
C        -0.78312384953658   13.01618398460639    5.92580398790932
H        -0.63807058217865   13.43478994013029    4.93668848158094
C        -1.49172596161850   13.62653825732146    6.98105372603866
H        -2.00110246649465   14.57969556396250    6.92937945234888
C        -1.58602206024528   12.69405466949451    8.04243146551032
H        -2.17983257541122   12.80987521363211    8.94111660484810
C        -0.99325014819211   11.48346764847065    7.60849703860786
H        -1.01302781016526   10.54360926961457    8.14592226570051
C         2.54969040349061    9.89484743545155    9.45380069778124
H         2.93204080002193   10.35707306207659   10.36428947764635
H         3.26453727205182    9.16291872246851    9.09581385551911
H         1.61371695480642    9.40125354144422    9.71394882109241
C         2.28952540062620   10.95869174761806    8.43244078458501
C         3.01948079427976   11.01230980090635    7.25728221416593
H         3.79038354553082   10.29000391368924    7.05155999786897
C         2.80985081321716   12.02692788572097    6.29856881353163
C         3.39216724397333   12.99116396128282    4.23343073272005
H         2.36185917745724   12.98857239841068    3.86870241773447
H         4.07837339460634   12.73903050156009    3.42919577164692
H         3.63159250970369   13.97739299253515    4.63781920532428

