60
CSD_code = QEZNEP | q = 1 | S = 0 | Stoichiometry = C23H27N6O3Os(1+) | MND = 9
Os        4.50828998303994   -3.02968091432941    2.85104870179330
C         3.85010507851306   -4.07416548409092    5.74278019314928
C         3.18247651049903   -2.88168181398096    5.38693221034375
C         3.88081956683925   -1.77017574010494    4.93994629378974
C         5.27151644528653   -1.84623094106286    4.66504152531936
C         5.88604754412740   -3.10852814633432    4.83516273976415
C         5.20124755495261   -4.16484025596513    5.46944217650278
C         3.10908240465941   -5.17666652373247    6.42909092377563
C         6.05335636804694   -0.56908701616605    4.44285497126891
C         6.29704444878285    0.08157884154589    5.81001625094316
C         7.37954559117329   -0.78120037465575    3.71446331869396
N         5.86075045758006   -3.36631217364915    1.47034197762840
C         6.66822472411950   -4.42764844010405    1.38575009560771
C         7.61012699875326   -4.55915064802695    0.38210306277896
C         7.72763765668751   -3.56180014843804   -0.57815978695739
C         6.89539283709844   -2.45679412869229   -0.48656613897615
C         5.97895914069005   -2.38937638137607    0.54800607594847
C         5.07576187453780   -1.17279005380764    0.77237802568600
O         5.01107188025788   -0.29432319459231   -0.05931361588436
O         4.44967957093997   -1.20070835792298    1.89117540773778
N         3.05865054178547   -3.53197761969125    1.50862345727552
C         2.27749864975424   -3.01284698892757    0.58282349504151
N         1.40971974550635   -3.92961862475455    0.06632711646431
C         1.64474566699672   -5.10359677521874    0.70883912565023
C         2.67574526084232   -4.84029193448412    1.60052792778832
C         3.23522538536295   -5.82869321581216    2.43946489896966
N         2.60341481902649   -7.04990845657565    2.25447168600414
C         1.57194119871959   -7.24672504171642    1.35230916172535
N         1.07587056059122   -6.31629720324482    0.57607798182987
O         4.16224318912076   -5.62677265130416    3.22101460614413
N         1.05079564988935   -8.47708814268685    1.28375808969433
C         0.38483420560780   -3.68204771140422   -0.92251012410531
C        -0.88869715119527   -3.15593468931842   -0.26963008488894
H         2.12277770038687   -2.79699566173696    5.59197503696340
H         3.37688778828304   -0.81785619008904    4.83432160087872
H         6.95867745665197   -3.19921870113097    4.71183677799676
H         5.74467814890143   -5.05978088030010    5.73300931960779
H         5.43558397481631    0.10370503379984    3.83954704589253
H         6.82969540512934    1.01967537888697    5.68185624289749
H         6.89563852253561   -0.57271824625221    6.44049599279461
H         5.35808294486724    0.28493424072511    6.31852645763104
H         7.80220822191255    0.18334562254234    3.44690080447045
H         8.10035164839325   -1.29811586055089    4.34402812222043
H         7.23243836067658   -1.35147749456955    2.79750022434333
H         6.53891529917052   -5.18716617839429    2.14701733772892
H         8.24303127343486   -5.43153789346770    0.35528732713101
H         8.45349557858826   -3.64384841682032   -1.37114835247204
H         6.93364912312336   -1.63678434508794   -1.18660356510889
H         2.31724548511215   -1.99290104133210    0.25075214101980
H         0.18707999529792   -4.63054057582996   -1.42533260445985
H         0.77038786830113   -2.95926757359086   -1.64445490696416
H        -1.64338272776808   -2.98587986669091   -1.03117844774095
H        -1.27465450915535   -3.87846925052208    0.44506398453871
H        -0.69802602156046   -2.21712757589038    0.24434129403594
H         3.60584695773778   -6.13065494209408    6.27479838853282
H         3.07216027170398   -4.98274340267651    7.50153289414850
H         2.08448179594702   -5.24271195092626    6.06885156889255
H         1.39748682284713   -9.24447278182590    1.83039241226928
H         0.30881152756256   -8.63684922268504    0.62450340334884
H         2.92882672851142   -7.83326127287763    2.80908775289633

