41
CSD_code = QEZPUJ | q = 1 | S = 0 | Stoichiometry = C16H18MnN2O4(1+) | MND = 6
Mn        4.94786138595714   22.45779928115211    1.72860777972113
O         3.96618554255050   21.32351627149113    2.68897734037594
C         4.13138855499577   20.05504306085583    2.91949183283738
C         3.64214809189106   19.46360836990523    4.10054325481416
H         3.17917910471147   20.10623214878138    4.83390758937161
C         3.76916844410984   18.11243811178475    4.31598280161533
H         3.40169003729343   17.68366237088268    5.23546470183439
C         4.36049383151338   17.28810078516451    3.35649090818676
H         4.44334751207198   16.22852420904337    3.53610180508090
C         4.82271052126837   17.83081794368962    2.18249148050904
H         5.26897578566801   17.19875139368832    1.42934008737110
C         4.73815386211203   19.21093870953602    1.93814309934233
C         5.16548484715007   19.75615848896328    0.68919341618839
H         5.44716170339882   19.03662498657501   -0.08046189859270
N         5.18668651968914   21.01755850369916    0.41530899601297
C         5.54498726534428   21.44386236648759   -0.92068621544403
H         4.62587769321127   21.71003101406141   -1.45618843422044
H         6.07161832419575   20.66171334699417   -1.47739029421733
C         6.41457407758760   22.69560294036171   -0.75898035880646
H         7.41838367423320   22.39797484991974   -0.43329311708185
H         6.49168195459547   23.25166311372460   -1.69913254234972
N         5.80849417441662   23.48226167145187    0.29388722899890
C         5.75731162350180   24.76635321171885    0.17142510624527
H         6.14431179633271   25.23366115542978   -0.73478517480674
C         5.26937067165643   25.65131345543448    1.18076224230919
C         5.16700819838442   27.02991015528270    0.93495328462126
H         5.41117355135618   27.39909496871409   -0.04990821917549
C         4.75404618356655   27.89724225550827    1.91668090210738
H         4.66675599561550   28.95153341539791    1.71007024584859
C         4.45798368503006   27.41117170926145    3.19176973547300
H         4.13955937567868   28.09484443253215    3.96347292348906
C         4.57466579275406   26.07239662824903    3.47882932743804
H         4.35522572698793   25.69000425440363    4.46408783613416
C         4.96666888353898   25.15318614026831    2.48618933276865
O         5.12580538189601   23.89386407699007    2.76646384102170
O         2.96656938061867   23.14502053711783    0.94735904877311
H         2.24955632145553   22.57370770056892    1.25709167862942
H         2.74801384762597   24.04100585329359    1.23590416131937
O         6.84897755927430   21.80014535637175    2.70688788411426
H         7.21797708218244   22.50076019540656    3.26319387876253
H         6.72266603457970   21.03230055983808    3.27975250337983

