27
CSD_code = QEZPIW | q = 0 | S = 0 | Stoichiometry = C11H8Br2FHgN3O | MND = 3
C        -0.37886141311903    5.82134961330674   37.16189730876904
H        -0.39946925072831    6.89480879951738   37.04045412149544
C        -0.28913710818699    4.96925514046645   36.06774268601308
H        -0.23739135266006    5.35094460241479   35.05747209704803
C        -0.32959972579898    3.17783852158658   37.46944291093058
H        -0.31164629750427    2.10680222444422   37.62449741022556
C        -0.42022279066168    4.04260713757401   38.56032005259349
C        -0.49588974495862    3.48609028188942   39.95739459307526
C        -0.61615073458923    4.37374839833467   42.27076226549183
C        -0.66993895077456    3.14719488434887   42.92545446567387
H        -0.66033593189069    2.22061711090279   42.37692183059161
C        -0.73577251550483    3.14289512031357   44.30594205199513
C        -0.74952686624053    4.30458093843759   45.05713340785671
H        -0.80116897192114    4.25081491342633   46.13218913995880
C        -0.69568082355481    5.51688910103446   44.38991028571362
H        -0.70489739656580    6.43756505225056   44.95237646535266
C        -0.63005059931477    5.55660735532021   43.01061931664341
H        -0.58848697621953    6.50639983576574   42.49801668808027
N        -0.44159892346685    5.36213087872580   38.39799297315565
N        -0.26201001009503    3.64515903294875   36.22609334524205
N        -0.54790393959415    4.47445637215026   40.88219676491494
H        -0.52711519540018    5.41464977410478   40.49986812500021
O        -0.50507825137129    2.29274753045323   40.16151967692069
Hg       -0.05129907779825    2.09279783983037   34.20592420653245
Br       -0.01843769807828   -0.02300086980189   35.39198259522518
Br       -0.00845203339529    3.87219825289466   32.53616669324892
F        -0.78877742060720    1.95845215735702   44.94190852225071

