27
CSD_code = QEZPUI | q = 0 | S = 0 | Stoichiometry = C11H8Br3HgN3O | MND = 3
C        -1.54043027402293    3.32980111952182   11.56963879038945
H        -2.59464133209987    3.32980718917876   11.33245643441686
C        -0.57035680404786    3.32978027860522   10.57452609887132
H        -0.83629057503006    3.32977422771081    9.52651212443326
C         1.05339942712959    3.32978648497495   12.16809333298518
H         2.10129330922464    3.32978848395010   12.43950426578515
C         0.07144608617141    3.32980289665278   13.15848736531893
C         0.46471881051106    3.32980471908275   14.61172524995797
C        -0.68564743586823    3.32980318776316   16.80953061708543
C        -1.95065846193848    3.32980206509007   17.39578158595349
H        -2.83787188105454    3.32980206205610   16.77988439785010
C        -2.05871562574181    3.32979948527634   18.77264347053222
C        -0.93856767610040    3.32980123836250   19.58664426007915
H        -1.04375295939608    3.32980051372100   20.65991925237219
C         0.31189231997832    3.32980080306991   18.99232857469378
H         1.19365037763833    3.32980001138942   19.61395946367118
C         0.45013230565042    3.32980195891493   17.61620319695424
H         1.42664590579173    3.32980248081711   17.16233065937255
N        -1.22209186840823    3.32980632531113   12.85077976904005
N         0.72822970170762    3.32976853985624   10.87833122041197
N        -0.62464134356723    3.32980416088256   15.41746304941677
H        -1.51310171411599    3.32980542272828   14.92520947703179
O         1.62619111138185    3.32980181970809   14.95375357309565
Hg        2.50016834703483    3.32979948283167    9.03168485274388
Br       -3.79416813497586    3.32980024321919   19.55982873142614
Br        4.46846482396479    3.32980550842674   10.44976298877619
Br        0.91630356018336    3.32984929089777    7.17731719733547

