64
CSD_code = QEZQIV | q = 0 | S = 0 | Stoichiometry = C23H37ClNNbSi | MND = 12
Nb        3.08733576589584    3.76798147702635    0.79774366675661
Cl        4.02015725839258    3.62773379598911   -1.29593004462579
Si       -0.27218124320767    2.63265419223346    0.37278675393232
N         4.47852703817871    3.57804607608069    1.86728628917667
C         5.63321445087613    3.70956042076932    2.66967347743351
C         5.62590916156679    5.13369637037356    3.26167366123463
H         5.65882632085253    5.85745307673590    2.45059296819921
H         6.48367053292809    5.28271662403119    3.91173625460236
H         4.71088866981516    5.27842918592645    3.83315657104183
C         6.88211283472806    3.52927514761670    1.78572239618639
H         6.95982424686292    2.49947957457096    1.44706722649067
H         7.78153008216607    3.79216295106751    2.33570223009506
H         6.78731047939473    4.16998224450697    0.90961591706871
C         5.62570728328999    2.68830372454492    3.82145814127594
H         4.70469693201708    2.79659703253852    4.39020713621959
H         6.47520671193717    2.85701503050184    4.47769166246811
H         5.67948488182185    1.67539250674515    3.43238484395614
C         1.19586971996574    1.51482810050164    0.00499009633133
C         2.40216191779899    1.54451585248907    0.89541077733459
C         3.38475530308768    0.69626395266902    0.17439412890878
C         2.85126995501025    0.28572135395782   -1.00642471985000
C         1.50313063726478    0.79695840953990   -1.11258465368574
C         2.15736754649015    1.10806323593729    2.34058383164370
H         1.73726523023045    0.10037295209978    2.35017900184964
H         1.45751401288407    1.77263571207556    2.84673406063049
H         3.09403163788439    1.10187714878657    2.89599534549699
C         4.71445503884732    0.32746343756423    0.74835477178407
H         4.61427164357946   -0.52730689886025    1.41972275939358
H         5.11297300791965    1.17461269924799    1.30389377187197
H         5.41702964147936    0.06040205485199   -0.03738606902264
C         3.48445163117341   -0.55315339544884   -2.06670024638436
H         4.53645265200242   -0.72286605464916   -1.85610865132136
H         3.39958220784632   -0.06387790525367   -3.03639304671418
H         2.98774114999556   -1.52173074763057   -2.13498838692267
C         0.64240940882406    0.52921224246040   -2.29990731013507
H         0.68009712297195   -0.52847777696819   -2.55815625215920
H         1.00011862351992    1.09198742297024   -3.16391125671423
H        -0.38873177151840    0.80519298646455   -2.10604859017985
C        -1.45877216176350    3.00984061326617   -1.07357218241690
H        -2.07351665525282    3.87449098654607   -0.84030403935397
H        -2.12777823949361    2.17432348684082   -1.24870222651075
H        -0.93383846411206    3.21810389733712   -1.99943150602232
C        -1.35811990216723    2.08141051965933    1.84648358918980
H        -0.82315547735203    2.06127153422485    2.78989795633610
H        -1.74710101366325    1.08404958824923    1.67054487778715
H        -2.20618048076276    2.74934921525980    1.96164740333752
C         0.66926740107279    4.22356199980616    0.75146190410894
C         1.23501039938027    5.05094571763942   -0.23660027827479
H         1.01206681108832    4.99897437601892   -1.29544944552047
C         2.04600344494436    6.02699107135643    0.36652617154143
C         2.02066785310763    5.78644365539811    1.76529624361746
H         2.41883701987545    6.44064003098074    2.53183035497076
C         1.18850604176491    4.66176801082736    1.99973433585073
H         0.82575909792479    4.35544648396874    2.97576745446222
C         2.74149378222608    7.16088320442407   -0.33456424681430
H         2.65368750158308    7.00135292307634   -1.41795034046903
C         4.23021418473646    7.21122500384561    0.02470550816783
H         4.35649948570638    7.42818980218028    1.08498939735646
H         4.72782810728237    7.99400685380785   -0.54524818537714
H         4.71233572669063    6.25465459418478   -0.20230577112398
C         2.06096122138115    8.48941450645563    0.01529101048898
H         1.00546945386224    8.45880900694846   -0.24843531706959
H         2.52874314078999    9.30906404650199   -0.52613723815788
H         2.14207399640702    8.68931465714263    1.08200605617853

