58
CSD_code = QEZQER | q = 0 | S = 0 | Stoichiometry = C21H33ClNNbSi | MND = 12
Nb        3.35185184540313   12.92851263439348    9.01047016278971
Cl        1.07456444600775   13.23057015611521    8.91278526765255
Si        4.23006025522427   15.48472188041029    6.78028158549927
N         3.45938732160321   11.24421413114207    9.52407184682663
C         3.39887858112240   10.04062102149419   10.25835525786234
C         2.03686734765314    9.36754579841110   10.00586063548371
H         1.25358428049030   10.11568810561070   10.12570281546179
H         1.87699927381813    8.55274139054571   10.70668005776249
H         1.98983565202191    8.98085666456635    8.99230982331090
C         4.55779435710080    9.10152818340460    9.88367000114561
H         4.46475149732563    8.78201862226304    8.84902768462546
H         4.55592871967263    8.22383423838716   10.52406914830958
H         5.50100961309888    9.63138881724736    9.99955698590013
C         3.50598107425014   10.42815477098735   11.74818710180341
H         4.46393501420638   10.91329225396817   11.92642841122279
H         3.42433757562480    9.55003334682919   12.38271205186450
H         2.70270990069699   11.12586198380805   11.98529957253157
C         3.30545611846164   13.94368397555775    6.21449984038683
C         3.69132990102350   12.59483559111025    6.74199373726122
C         2.62809577271063   11.69973522285575    6.22714975965065
C         1.70379343534399   12.43551171536137    5.55218022962675
C         2.11698851146410   13.81953335226678    5.55431260769904
C         5.10741545896293   12.12290004044087    6.41342981129756
H         5.31680578556713   11.16759343028547    6.89646194911920
H         5.85508621202494   12.84744782979002    6.73176280048513
H         5.20454875057602   11.99536526978024    5.33331307120237
C         2.68022552354326   10.21276874606560    6.37046194507610
H         1.67961771169147    9.79688821979496    6.46871005372889
H         3.25959028485030    9.95430605328520    7.25443921169337
H         3.14971142752317    9.76442934865780    5.49259858568634
C         0.44916546308373   11.95875499788650    4.89868364450779
H         0.50475480443363   12.09379793010558    3.81779206038704
H        -0.40572592455688   12.52687428579880    5.26451728992508
H         0.28025881968990   10.90558701242435    5.10453634689502
C         1.30730561535770   14.89450309409837    4.91312607933254
H         0.42145992469515   15.10856241373120    5.51363568294850
H         0.96862973956836   14.57325567901855    3.92906154736088
H         1.88414688983880   15.80721166641448    4.80433559891759
C         5.92048653296464   15.75021116008762    5.92877238173135
H         6.62767080805428   14.94987477975606    6.11843070265328
H         6.37260827642373   16.67730250021100    6.26675187307295
H         5.78866687507236   15.82094549406527    4.85432771912406
C         3.27777318949179   17.13504354839714    6.67200953951693
H         2.23963923269965   17.03511105269235    6.97017771114014
H         3.29832610074303   17.52317370757729    5.65948246904112
H         3.73800632255143   17.88062340251848    7.31426028718348
C         4.43328117124981   15.08683511675082    8.61526839555959
C         3.44271373321872   15.31912467715306    9.58534279383284
H         2.58922335808820   15.97497472656264    9.46386416218548
C         3.78283056860048   14.65474293656327   10.78087875319658
C         5.00201139763537   13.97023529116098   10.54730536833165
H         5.60932150897241   13.48594945675513   11.30369044665991
C         5.38908530739254   14.21526920716698    9.20505396211400
H         6.36609241551016   13.97974141035552    8.79675515102221
C         3.05280453105812   14.74135847814328   12.08727342605957
H         3.28945760758929   13.88557892728539   12.72081649989089
H         1.97333092163106   14.77299268701515   11.92875813590183
H         3.34193315978861   15.65038156550986   12.62110995852451

