42
CSD_code = QEZQOB | q = 0 | S = 0 | Stoichiometry = C16H22Cl2SiZr | MND = 12
Zr        1.12056067718720    3.45092342196420    5.65898494138386
Cl        1.18164350330319    1.74633463871228    4.05769832859165
Si        0.85258226113564    3.45075574542726    8.97245141509759
C         2.32351748136632    3.45077458916152    7.76610664455521
C         2.75743566003625    4.59947922734759    7.02437965701136
C         3.50215773055815    4.16166450281932    5.89944996650524
C         2.54330184915699    6.05104117839979    7.35803307197899
H         2.08154071477342    6.16673345295827    8.33277767650633
H         1.90998388175097    6.52859786530709    6.60075950308502
H         3.49811038526195    6.57896064904112    7.37287407098759
C         4.26268405152651    5.02716919422746    4.93658776950167
H         4.19216434242702    4.62960066476895    3.92282866593953
H         5.31929009081392    5.06293888838719    5.21300115753563
H         3.87076204417903    6.04262592104829    4.93095871479710
C        -0.40570263821825    3.45072347659249    7.56077038131374
C        -0.73997167460160    2.30884130225424    6.77893696655455
H        -0.68480207941695    1.27757804531343    7.11070293008668
C        -1.34443781779964    2.74643804869107    5.58092156731141
H        -1.80314603331583    2.11192814032519    4.83208512354314
C         0.68411196220529    4.97491316166186   10.11368250861161
H        -0.00176094794271    4.74566156848268   10.92219985788732
H         0.29225353510837    5.84665478109697    9.60124055952691
H         1.63430369681427    5.24274869411513   10.56352949993027
Cl        1.18331693932416    5.15469941504212    4.05839198330798
C         2.75746301460992    2.30207837938142    7.02438165305102
C         3.50224928034872    2.73989885081650    5.89950893994406
C        -0.74006904413808    4.59261573973582    6.77901673537707
C        -1.34461118823560    4.15503723887312    5.58103922273233
H        -0.68491646710792    5.62386111802275    7.11082194987994
H        -1.80336607006674    4.78956147424426    4.83225571658152
C         2.54326213561432    0.85050932898803    7.35797992203880
H         2.08152639989824    0.73479112009346    8.33274014212200
H         1.90989469378073    0.37302068647791    6.60069719119147
H         3.49803795615931    0.32252779893212    7.37276519502855
C         4.26277198616979    1.87438008389437    4.93666155411444
H         4.19228959669641    2.27196454908666    3.92292896355933
H         5.31935559340017    1.83853221192226    5.21307628640556
H         3.87079900323226    0.85897093898500    4.93096513534941
C         0.68419822630150    1.92663857197995   10.11375464197380
H        -0.00176751240359    2.15586079459969   10.92220369839230
H         0.29249267244987    1.05480411980317    9.60135346019735
H         1.63439010765700    1.65896042101828   10.56369663051098

