65
CSD_code = QEZREV | q = 0 | S = 0 | Stoichiometry = C25H32CoIN4O2 | MND = 6
I         2.51248241366583    0.93737858751260    3.80860399185757
Co        3.49750137075384    2.60601949127297    5.50727412275354
O         4.19871588815226    3.76072722628048    4.02015676689416
O         4.22918148460040    3.84835952027325    6.77824963170528
N         6.23589192139806    1.11309393493719    5.19198075856498
N         4.92447274934268    0.57662460067465    6.80726771210799
N         1.02169734614315    2.90302181788747    6.78403774140553
N         0.88896289404826    4.31621980514997    5.17124364251106
C         6.67959458146460    0.40220472143473    0.30072426453101
H         7.22287461858448   -0.53265176567916    0.42020266842930
H         6.98736239098561    0.86105676672018   -0.63584959299057
H         5.61771025945274    0.17662852476622    0.24436312180338
C         6.95541190579869    1.33618705520336    1.47179688960771
H         8.02329593666181    1.56786563487035    1.51576068077817
H         6.41630719190892    2.27316790771084    1.32041771244732
C         6.50847136511393    0.71495564981709    2.79092296730078
H         5.44179354169678    0.49191035316641    2.73710568354309
H         7.04216047682510   -0.22397776188252    2.95732706092234
C         6.75351309556798    1.66397279161322    3.96614984918366
H         7.82456830694530    1.85886122220243    4.08640146334411
H         6.23998667340728    2.60717666515235    3.77872754534697
C         5.05663462285262    1.42311382035948    5.74981943718841
C         6.83515754581633    0.09340837666036    5.88638813583764
H         7.78905045197063   -0.30286156314626    5.60415739558186
C         6.01051180586508   -0.24283763184171    6.90776082453827
H         6.11291501102837   -0.98693463440840    7.67036095028421
C         3.72721717378792    0.66446449764877    7.52622646253619
C         3.32050407649132   -0.03505838761402    8.65194580484341
H         3.95185066503142   -0.78122660173998    9.11113068326325
C         2.07019467598774    0.24887482688591    9.18719564183567
H         1.74276310624365   -0.29167224183064   10.06267160846757
C         1.23013773745090    1.21017454921606    8.63893887626556
H         0.26947574496238    1.41286490779663    9.08868122020142
C         1.66163960777424    1.89445258813031    7.51303350860317
C         2.89292668178972    1.60679686667332    6.95181777359092
C         1.71423372897384    3.42098020178090    5.73315612965719
C        -0.21488138898569    3.47185188902752    6.87451520613277
H        -0.92572106069499    3.20884759473263    7.63034124409712
C        -0.29935660538487    4.35989376857424    5.85439102286486
H        -1.09718796852997    5.01328173398594    5.56597046288009
C         1.14611126130753    5.04532330791582    3.95621152570025
H         2.22524719331277    5.07396279136467    3.80304320595349
H         0.77584007717582    6.06960804165215    4.07099276262597
C         0.48448005951520    4.36579817918435    2.75533017261904
H         0.82345096592557    3.32985174501744    2.70852235387610
H        -0.60046673256066    4.36068424900303    2.88584867290878
C         0.84563899204648    5.06798113619205    1.45057886384021
H         1.93179432010121    5.07617265562453    1.34120924128983
H         0.50498017592062    6.10673854126501    1.48314238798010
C         0.22508076126132    4.36009787828174    0.25324416766341
H         0.56990980198069    3.33014771615980    0.20785870797075
H         0.50061631604991    4.85997234462735   -0.67236112909032
H        -0.85991358847262    4.35497492744766    0.33144494847451
C         5.25726984344339    5.50806444088144    2.82271631795662
H         4.92957562949084    4.90988066023789    1.97563108089325
H         6.33943442662269    5.61784461559676    2.79192761799517
H         4.81372913923658    6.49971306168911    2.75777982638489
C         4.83865574722696    4.83642978467616    4.11490509248927
C         5.19162527514040    5.45441246582916    5.31899006566851
H         5.74150385187779    6.38110536228400    5.28530376117473
C         4.86217750234680    4.91746772995349    6.56182565009558
C         5.30318521555950    5.68330066266988    7.79320558228596
H         4.95305443329356    5.17279882977075    8.68694631618557
H         4.89867422333767    6.69307372168271    7.76917698917881
H         6.38912308390587    5.74957784101767    7.81765874716195

