155
CSD_code = QEZRET | q = 0 | S = 0 | Stoichiometry = C47H81F5N2O12PdSi7 | MND = 4
Pd        0.19450021336083   26.41053868231403   15.78456166157247
Si       -0.02869855269536   24.38838990683661   13.20630698906438
Si       -0.44325322759718   21.27969859245047   13.20154009247017
Si        1.38642582249512   20.42253686232739   15.50917195409719
Si        3.66611470531860   20.44593605977737   13.49712823690625
Si        1.73789782990742   20.96564740283564   11.12557774722919
Si        3.89703047397409   23.54628476377388   13.86099493491148
Si        2.24877728959494   24.00582397503861   11.28522766375072
F         1.19517700083518   24.60247370748925   17.62116835955616
F         0.22590385864440   22.30727604038136   18.89284016480931
F        -2.38417621068819   21.59156730648271   18.51349717815687
F        -4.01661347248098   23.14440253701204   16.98919766087729
F        -3.02773268218485   25.42830306793851   15.82191812848476
O         0.77883010881181   25.06288986925373   14.38350489381481
O        -0.22179447601029   22.82404016682466   13.59890289270267
O         0.17477803545779   20.41684651440708   14.41651195252382
O         2.76774072062324   19.98783752996015   14.74990432875735
O         2.85548621835540   20.32440223103558   12.09821300678327
O         4.18694304313760   21.96119938831162   13.73247387597521
O         0.26717067022635   20.90830891546320   11.79060666904854
O         2.14792746825188   22.48597025111527   10.74671556489307
O         3.35822240431551   24.16589716816592   12.45313517180394
O         0.82380382001969   24.54049077027900   11.81135482177008
O         2.88499625558896   23.86495035955405   15.07704083843639
O         1.52319498342704   21.83086820434234   16.27431752865669
N         1.67770286486146   27.77359636050772   15.05823365420601
N        -0.29846226204207   27.90162665997202   17.12621490138107
C        -0.88042592726363   24.98297613728856   16.64860900682825
C        -0.08685549588791   24.16522310215631   17.44108602820740
C        -0.54972398398970   23.02693483448764   18.07950513318278
C        -1.88629380764189   22.67335326156863   17.90095481752082
C        -2.72161535097643   23.46642736209592   17.12047490868231
C        -2.20371131407840   24.60559589399086   16.51668764659599
C        -0.46984118327921   27.44725409343441   18.50985320920351
C        -1.54670502805413   28.53189097678908   16.67944193923668
C         0.80951703478830   28.87343246725137   17.08447171964403
C         1.35088691908609   29.06540110260820   15.66613325382826
C         1.86946413486326   27.90553416130821   13.61673715035478
C         2.89150717137525   27.19705844985272   15.65264147328188
C        -1.71096059599024   25.20101547815734   12.84150557945595
C        -1.73170423925256   26.70642554132914   13.11580289296981
C        -3.07504897827772   27.15211066520787   12.53813168633350
C        -3.29643904400544   26.24295205754376   11.31387600448944
C        -2.21867733261609   25.14607416115260   11.39830018768081
C        -2.29588044893393   20.90819175679311   13.02995257365835
C        -3.04621767849546   21.26050733726147   14.33666310641905
C        -3.60487563574034   19.94099357064711   14.88428829557077
C        -2.77078067993020   18.86378575702588   14.19726457540008
C        -2.59954219938883   19.41983851534733   12.79042527799682
C         0.98530720126852   19.03666878626064   16.73633202948047
C        -0.37565426114234   19.19331207163082   17.43700068081163
C        -0.91660046087231   17.76912690090336   17.66600932118614
C         0.18385592323400   16.82405938507181   17.17529663259697
C         0.91066060576728   17.63927763975556   16.11081009926115
C         5.16644684583341   19.30860042790936   13.33359953475674
C         4.81950067516748   17.85348994940492   13.01354837596908
C         6.14437139593719   17.24632447015280   12.54029423245677
C         6.94367242474023   18.41703888074836   11.93672024046832
C         6.08895162602275   19.67162610152951   12.16733288663554
C         1.71046873233863   19.99499034790265    9.50423003049153
C         3.04332011553267   20.00596913784591    8.75371475994264
C         2.68685650744594   19.54253675602568    7.33646356310578
C         1.20988032523595   19.93064592890537    7.13069053218809
C         0.75612792198983   20.56504613937851    8.45247549191904
C         5.60235429120500   24.35715553895717   14.13455326665250
C         6.73090123634602   23.64510181815283   13.37405775583129
C         7.82530196935644   24.70136127913050   13.28314200922189
C         7.04064656128648   25.95973983714871   12.92104831220431
C         5.71635024051260   25.83554065537685   13.69305432295556
C         2.76800221652782   25.09362387432601    9.82577428011599
C         2.66638229424079   26.59846640373792   10.07697311832676
C         2.73842712845749   27.22555583438441    8.67947542814779
C         2.20971290584808   26.14776234317693    7.71345522015386
C         1.88761015634499   24.92723403848052    8.58608186096073
H         2.01493668803912   24.33466533084972   14.86338134086321
H         2.07248262991403   22.55600696029865   15.92845704196088
H        -1.34217267353921   26.80014080465600   18.58073136775669
H        -0.61262128885702   28.30241967743688   19.18241380391667
H         0.40599965485126   26.88356625537445   18.83161246577813
H        -1.44086173713074   28.91620486636202   15.66478343145624
H        -1.81902964454879   29.36168693359420   17.34473219562373
H        -2.35197196992452   27.79720026353402   16.68626492796150
H         0.47954921593167   29.84217732152688   17.48770420240889
H         1.61129401370094   28.50232360357772   17.72775820754330
H         2.23533135108988   29.72228663662970   15.70565602983637
H         0.59742007259961   29.56055903473081   15.04611836400522
H         1.97937676047771   26.91349332424168   13.17928541155614
H         2.76157309975406   28.50323182171537   13.39005196354466
H         1.00005824155479   28.38564981678763   13.16753737286815
H         2.72559881259108   26.90952392714368   16.69641792284690
H         3.72377561192127   27.91252124607803   15.59783658685574
H         3.16486237650550   26.29633138050844   15.10347670296241
H        -2.46783412611544   24.73979879076394   13.47992586263503
H        -1.62994293240305   26.92709213687834   14.19108445826441
H        -0.91430592495443   27.17554895119113   12.56500637661212
H        -3.85941908798663   26.98427065820789   13.27601991914110
H        -3.08348885065736   28.20891325304219   12.26881542531930
H        -4.29509652170193   25.80842844022882   11.34026558440473
H        -3.20744263672520   26.80435994916751   10.38383303844062
H        -1.39652805386874   25.36846860625706   10.71864607575073
H        -2.60812592483343   24.16320984321656   11.14203043337390
H        -2.69550240098591   21.49816188241886   12.20238211419058
H        -2.35123923480904   21.70460861110455   15.04854033849617
H        -3.84380123693151   21.98206945919217   14.16043458993562
H        -3.54440358531870   19.88819603429831   15.97053149119330
H        -4.65314550042730   19.83011879398654   14.59937988274871
H        -1.79469302914433   18.79251058959425   14.67311269589872
H        -3.25314346124786   17.88608572294045   14.21364937031306
H        -3.53372417652604   19.30848667681679   12.23398907027531
H        -1.80441880677899   18.92560917606904   12.23616040638304
H         1.75945956307681   19.00815920671934   17.50714988539518
H        -0.26308512663477   19.73648774004722   18.37220426340096
H        -1.05778826855009   19.75841367548439   16.80533945899624
H        -1.16013579069536   17.59138643352563   18.71301463028242
H        -1.82491970491419   17.61460653180679   17.08344299672796
H         0.87112334278095   16.59267647699692   17.99102519046503
H        -0.21793062324532   15.88691503866965   16.79035317053156
H         0.32039252319146   17.67072800942995   15.19488205763437
H         1.89711682924268   17.24711930534023   15.87110741314154
H         5.75613112735124   19.32228282636040   14.25416399370484
H         4.40282563777558   17.33104678619470   13.87204311666521
H         4.08400014212682   17.83149386557555   12.20966999935237
H         6.68340733389795   16.82198328771024   13.38810501768713
H         5.98483886302261   16.44767268843015   11.81649280177682
H         7.90653901995297   18.51548387229396   12.43891108297385
H         7.14048482991408   18.26381170794403   10.87594097757804
H         5.48142093134855   19.88245803724852   11.28732071625710
H         6.69125036547784   20.55232013917547   12.38024628809399
H         1.43274398863454   18.95311878343485    9.68696420787057
H         3.43128068022662   21.02449738125733    8.73343370769223
H         3.78748160525572   19.36730147137008    9.22559962254982
H         3.33450059398473   20.00255367434163    6.59058709220806
H         2.80588195634471   18.46158782727616    7.25565934420973
H         1.08761046773359   20.62205292557613    6.29733731834686
H         0.61433731838572   19.04369764876523    6.91286476187271
H        -0.28483381872915   20.34883164581756    8.68372211173853
H         0.87650916598506   21.64757887272442    8.41376648225645
H         5.84910898060943   24.30521758136981   15.19806848951295
H         7.04589408941252   22.73866986282696   13.88571515755716
H         6.39300107474798   23.37520984480850   12.37382416645920
H         8.30701483141753   24.82424685034328   14.25484635282899
H         8.59014717326141   24.46072367229028   12.54563919851256
H         7.58092214101564   26.87288485433686   13.17212178571510
H         6.84515335153114   25.96568394580699   11.84862147840390
H         4.87915671305855   26.11573747433492   13.05652135955415
H         5.71681286303769   26.48999540236057   14.56492812011051
H         3.79941136173921   24.86725427462786    9.54211991148715
H         1.70285598963698   26.81514294118034   10.53838779804131
H         3.45263256161020   26.96218344479710   10.73667592271796
H         2.15346698588193   28.14336316878727    8.62200512084866
H         3.77106213856595   27.47612822395144    8.43485993999897
H         1.32971391850300   26.49054280804191    7.17011826758007
H         2.97334615855577   25.89480206236791    6.97768079856861
H         2.07727750745609   23.98700350033484    8.07301850922835
H         0.84030966524181   24.94288292389853    8.88747211527336

