161
CSD_code = QEZSUK | q = 0 | S = 0 | Stoichiometry = C78H78HfN2O2 | MND = 6
Hf       11.31722777181434    0.51702106353587   10.88507959540958
O         9.44977115022489    0.88947949484097   11.41860833362630
N        11.67581451233604    2.62453151495887   11.79687888775581
O        13.19215643687353    0.55009307036993   10.22140861719305
N        10.97305416481869    1.76917992338717    8.96015603143425
C         8.87889048553684    1.59281618123264   12.35376115060287
C         9.54889917941703    2.66957435934458   13.00128960382288
C         8.89059521232479    3.41787147716780   13.99520334342263
H         9.44180473358386    4.22138896509268   14.45831081692527
C         7.59459483111619    3.16073405961073   14.35358384655650
C         6.93946369962637    2.10183165997139   13.71091948329190
H         5.91672979886684    1.91319800922729   13.99417337625264
C         7.52704238524275    1.33107690303379   12.73803434572298
C        10.88784062260546    3.07492043964231   12.70793112694365
H        11.23962741828262    3.90509865681624   13.33610510892507
C         6.81250167209615    3.95525890531709   15.38550280646134
C         6.60048186583708    3.04896944404621   16.60597016171343
H         6.17448194495968    3.60494998762133   17.43802032353553
H         7.56166194671145    2.64853597146702   16.92055472885515
H         5.94713784921380    2.21389440139194   16.36630092636574
C         7.54800127029342    5.22086699034390   15.84615822616954
H         6.90846834543216    5.78418454476872   16.52335755633744
H         7.79077561711793    5.86023041473897   15.00074154762786
H         8.46256613488110    4.96283116937751   16.37490008683289
C         5.50979154692372    4.40259246724065   14.73891398739740
C         4.28660666415503    4.37050172226386   15.39334166495114
H         4.21670286083065    4.00037965886561   16.40414481692310
C         3.13375921148590    4.80899876183066   14.76227610524218
H         2.19083634887194    4.77189765206851   15.28875202697157
C         3.18366229827816    5.28976083770489   13.46692951483172
H         2.28296102359524    5.62646635324602   12.97516608684021
C         4.40003030482309    5.33679952017246   12.80641878898135
H         4.45290830277961    5.71241383881014   11.79442817830973
C         5.54821024323847    4.90086367646440   13.43890269015480
H         6.49308586889017    4.93564654163740   12.91483326632943
C         6.76001921693796    0.21294639877904   12.03880516292789
C         7.45440916258394   -1.11898826717517   12.34493774247568
H         8.47090841232975   -1.11396086324339   11.95761464908110
H         6.90236581451460   -1.95371123346066   11.91824933497140
H         7.48909846118143   -1.25589403287426   13.42414780349834
C         5.30227349912563    0.08906907735991   12.51430185488455
H         5.25788588782288   -0.17860515154798   13.56763240781869
H         4.81413248100809   -0.69909022958642   11.94344618447760
H         4.74744041375769    1.00990683859592   12.35153794126914
C         6.68013922777287    0.53494281923745   10.55551221032164
C         6.87589933061669   -0.41036488532027    9.55752124512198
H         7.15556707365055   -1.42111783836019    9.80796041568428
C         6.70251473160506   -0.07872079509261    8.22348008550573
H         6.85963313318463   -0.83116792105067    7.46405975995447
C         6.32152182993626    1.20106713055073    7.86284774305303
H         6.17908994862083    1.45647252378416    6.82307981369430
C         6.11526494650704    2.15084895687024    8.84885622862125
H         5.81208975123594    3.15278976867732    8.58132714544241
C         6.29227973567729    1.81860430289125   10.17880321257801
H         6.12004086043501    2.56583998549844   10.94083842120091
C        12.97621573997213    3.25596280174105   11.70810785985683
H        13.72921416943348    2.47656595356122   11.55191814096629
H        13.22145570797080    3.77318729521811   12.65214593910030
C        13.08198610105767    4.27016717527289   10.59117600609638
C        11.95837363222639    4.80674383525413    9.98225628785314
H        10.97581821527264    4.49091131772384   10.29634530494758
C        12.08314075740386    5.74657284421038    8.97290970297759
H        11.19427348772479    6.14170595936997    8.50360746425887
C        13.33510395745554    6.18244333486781    8.58052731691972
H        13.43510498762380    6.92131906968688    7.79899806348276
C        14.46234674583738    5.67662440120413    9.20748567813841
H        15.44117520079793    6.03685018618778    8.92477473591813
C        14.33705085391869    4.72117864514686   10.19837712491865
H        15.21609428832587    4.32517675374744   10.68485380637191
C        13.88844124541357    1.10084084246765    9.27302815997717
C        13.30931844661401    1.99012531510044    8.31943869734383
C        14.11976848976697    2.62906550376145    7.36089169079224
H        13.63830383049076    3.32183937919981    6.68750832628774
C        15.46489577963351    2.38981128572983    7.27499548757189
C        16.01259203832210    1.44709925656170    8.15668684584885
H        17.06378217630566    1.23303113227849    8.05231800140927
C        15.28659396925549    0.82111554021348    9.14006496490560
C        11.90339801198411    2.21680933653669    8.19668514666892
H        11.62578009336654    2.79031964779768    7.30267932300535
C        16.37730492779013    3.02974279711082    6.24141956934536
C        16.54145577010841    2.01739480903267    5.09797683616997
H        17.06032238392834    2.46118647254324    4.25167846293158
H        15.55855255220644    1.69429073459875    4.76066050301634
H        17.09044123784469    1.14090818068875    5.43390423390549
C        15.79080384652178    4.32927770292569    5.66991124962157
H        16.53998842080559    4.82685313386335    5.05670755963566
H        15.49722098384108    5.00309244193441    6.47092924613478
H        14.92496592625412    4.12326264096198    5.04528785403922
C        17.70052434636172    3.39456513423303    6.89630786597590
C        17.68309658853230    3.97526785595554    8.16159495369117
H        16.73484155237179    4.11574580348606    8.65792296403792
C        18.85276673930426    4.35428639709100    8.79157623065578
H        18.81445155882733    4.79721457062294    9.77673582554113
C        20.07224237363145    4.16532279662171    8.16300051536000
H        20.98961703721669    4.45713112942652    8.65259074879720
C        20.10303761344155    3.59997139713377    6.90169900174976
H        21.04808520323248    3.45063737144331    6.39945690226760
C        18.92829544218482    3.21976197565837    6.27304120400399
H        18.98666243934493    2.78166519163159    5.28915004611217
C        15.94674901433546   -0.15817930052653   10.10699606668405
C        15.26839434683730   -1.52519962345092    9.96219027601051
H        15.28245044326605   -1.81869741908022    8.91436049235334
H        14.23521771620371   -1.48667551364150   10.29718055439341
H        15.79985962271724   -2.28526230259476   10.52990730878363
C        17.44717284113412   -0.35861929236454    9.83077916215702
H        17.60591938105365   -0.79521234373570    8.84720863091661
H        17.85017967229440   -1.04332176737520   10.57504420623756
H        18.00017250449756    0.57494369837424    9.90535453253508
C        15.86314936614849    0.41170845659136   11.51244106257179
C        15.56386111440078   -0.35768568807686   12.62858052462457
H        15.31789131862987   -1.40200542802524   12.52006999899944
C        15.58807965831991    0.19769041227149   13.89800308656347
H        15.34613854695231   -0.41613548816576   14.75346977931591
C        15.91509851450742    1.53027969066503   14.07520190434082
H        15.93240993380358    1.95956835837690   15.06629112154979
C        16.22605136867826    2.30545857956203   12.97082990913422
H        16.49333493378377    3.34562600516817   13.09733659507271
C        16.20349973278736    1.74786888859411   11.70534163662941
H        16.46576395559171    2.35091494109844   10.84676903525655
C         9.59218339033121    1.94774472526277    8.50450232567976
H         9.49018576501901    1.53570860986119    7.49216480873758
H         8.96150309382917    1.36930005769203    9.18424000687030
C         9.12539844837721    3.38041537733862    8.49684244634223
C         8.69048821446628    3.97512046344712    9.67615328603244
H         8.68943140399514    3.39880714732487   10.58917474935628
C         8.24364793825932    5.28389624740893    9.68151261427544
H         7.90363057021968    5.73236927473269   10.60379565880480
C         8.22481270638170    6.01750527176946    8.50641858905441
H         7.87077029835960    7.03795890365133    8.50878096992449
C         8.65466555280866    5.43371089352038    7.32771104729693
H         8.63679684512089    5.99797236168060    6.40646198715531
C         9.10253064908234    4.12294910407837    7.32400258786308
H         9.41808078124432    3.67154657154836    6.39356854640145
C        10.63735553483310   -1.18738581071809    9.58399442250791
H         9.54691990713421   -1.22007706152198    9.68421465223395
H        10.89578408373263   -0.92743679910258    8.54872838203564
C        11.23618700951658   -2.47524090406980    9.94658701307909
C        10.70935097931693   -3.26705228225395   10.97845746325924
H         9.82398510513346   -2.92905620157539   11.50196618541740
C        11.28706625404928   -4.47059985873852   11.32816009199279
H        10.85937725167565   -5.05834066453823   12.12884029095212
C        12.40511264837635   -4.93646693935227   10.65378896092076
H        12.85448891590550   -5.87985572499134   10.92689963381347
C        12.92528517775604   -4.18584222516346    9.61213211919828
H        13.78352576629563   -4.54895384117110    9.06370318856471
C        12.34703699497765   -2.98248630454966    9.25981283633824
H        12.74986670886173   -2.41676505701147    8.42992202912564
C        11.95486081066531   -0.54362782398236   12.75052904770521
H        11.59195047256758   -1.57722668792624   12.75076975037530
H        13.04950989579679   -0.53752255433263   12.71895647197826
C        11.46657502105435    0.18422475051562   13.92154768284217
C        12.19920146037337    1.23900371138150   14.49014196559680
H        13.16822362988116    1.48593313607854   14.07435023226988
C        11.72514673997496    1.93858042274442   15.58222562415027
H        12.31862988682179    2.74001986581335   16.00298372840715
C        10.50224757859867    1.61744965991599   16.14844671334985
H        10.13535293547854    2.16640933303210   17.00354820231398
C         9.77340931170409    0.56218270446447   15.62168488109798
H         8.82867860170759    0.28525408088460   16.06894590119117
C        10.25131305963939   -0.14674456922329   14.53966274159702
H         9.68911610308762   -0.98761679954137   14.15996591004183

