44
CSD_code = QEZSIY | q = 1 | S = 0 | Stoichiometry = C21H17IMoO3P(1+) | MND = 9
Mo        4.21175189840945   10.18527763087181   -6.03128563762374
I         5.55987796480192   10.74181438555020   -8.48444726945590
P         6.46062230769232   12.65617043452979   -4.42890538978371
O         2.82024102137445   12.85441633567291   -6.71857354952852
O         1.19119310601676   10.04150145396683   -5.39760973566859
O         2.83671933739444    8.17161765612315   -7.94574576229321
C         5.83169111236796   10.98133541150273   -4.57651245085496
C         4.76309895909402   10.40058578955523   -3.83410876707603
H         4.20386832471340   10.87719569423102   -3.03712990763819
C         4.74504636224302    9.00671894675567   -4.12564773285552
H         4.14969906562798    8.26913428706050   -3.60176418503839
C         5.79264801797357    8.72730288095909   -5.03104391973668
H         6.11444008946004    7.74261630021046   -5.34687097476300
C         6.46127386347395    9.93091202496021   -5.30973352553307
H         7.38356433349319   10.02542271303278   -5.87265541103407
C         5.18156398840298   13.66760101712612   -3.63816773882664
H         5.04222284592264   13.32985755282716   -2.61029669965037
H         4.23810664833555   13.59927281515629   -4.18143763186100
H         5.52077029549753   14.70443284967111   -3.62397507947570
C         7.91213501117419   12.62380163693638   -3.36033640687276
C         8.19807856985446   11.51214580724143   -2.57385880887229
H         7.56396694958430   10.63607529710512   -2.61503770914258
C         9.30376636177372   11.53708607125469   -1.74220091293286
H         9.53389275142263   10.67830950768140   -1.13104465213199
C        10.11366702810887   12.66114325861203   -1.69566350514444
H        10.97534126995899   12.67404692067072   -1.04685758205250
C         9.82522708675198   13.76845548160358   -2.48041728605659
H        10.45963898943751   14.64003810173204   -2.44195891222562
C         8.72451892072308   13.75513553430481   -3.31594525700442
H         8.49440766247898   14.60811662873044   -3.94013905912658
C         6.90968097262712   13.32062057161914   -6.03717403307866
C         6.03708789774838   14.14656128444448   -6.74239469132785
H         5.08818313359615   14.43987835746135   -6.31778233656551
C         6.39863161737778   14.59272323954800   -8.00041232616172
H         5.72611930459692   15.22843402596478   -8.55414838494681
C         7.61372439008992   14.21723320580362   -8.55185601284466
H         7.88321579016233   14.55971648486935   -9.53798127136715
C         8.48450351174065   13.40237558847193   -7.84408287808571
H         9.42939710429691   13.11420059973211   -8.27642454730745
C         8.13865899183861   12.95096236254575   -6.58507383534415
H         8.81483782563434   12.32186241587246   -6.02061983351634
C         3.33744906426276   11.85260234739656   -6.53086668873779
C         2.31299516790360   10.07956824596749   -5.60278241113054
C         3.35077508455151    8.93742084466685   -7.28412928933835

