155
CSD_code = QEZTAR | q = 0 | S = 0 | Stoichiometry = C76H64F10HfN2O2 | MND = 6
Hf        7.56069523536194   16.64494622748875    4.95936720889487
N         8.50976663260558   16.66725358306537    7.09540054094773
O         5.89181669123699   16.46408909065689    6.00637561804110
N         7.51152017579085   14.44211171539399    4.17401203903952
O         9.30545301913233   16.63927702746771    4.02734305090188
C         5.47362074675071   16.74444829850911    7.20233082990431
C         6.39436682356914   16.96419516595266    8.28327508306897
C         5.91579695995757   17.18004061290261    9.59934783443288
H         6.64731164424579   17.34321585349288   10.37530770547674
C         4.58340151865629   17.16884360711250    9.88646322568858
C         3.69305491531492   16.97356692300660    8.81989928501835
H         2.64229193245608   16.95886284983170    9.06104564471654
C         4.07694225067626   16.78483635121405    7.51591636237845
C         7.79934097657254   16.91255570505471    8.16751886144019
H         8.32620518747944   17.00000988303415    9.12084190090571
C         9.87438456768498   16.52392377098274    7.19142164478775
F         9.61422889122547   14.70152526437094    5.74348002962294
C        10.45905683168269   15.48915177679222    6.44488710076674
F        12.30607425485744   14.23004493552495    5.69303924711537
C        11.81689983527793   15.23539302005580    6.42245208209001
F        13.98863168414737   15.82496558431778    7.16232340585239
C        12.67182015660869   16.04251145916256    7.17204592569164
F        12.94343291991869   17.86145009874074    8.64666583202560
C        12.13481184420262   17.08145288934894    7.92666605759583
F        10.30688579362026   18.32994336998994    8.68557111092696
C        10.76423532845611   17.30918018032123    7.94621831983948
C         3.98705995100557   17.39350121198700   11.26436361859302
C         3.54365609016028   18.86168414646523   11.31789553628301
H         2.76303315644733   19.05524898743813   10.58588516673837
H         4.39444284605559   19.49873207445058   11.08533432622705
H         3.18165122462623   19.12348198136905   12.30937907649552
C         4.99295350178587   17.14131643132489   12.39537866816969
H         4.47962133495208   17.19418156394705   13.35342099813580
H         5.77929973071342   17.89216787880950   12.39049243972187
H         5.44139474811568   16.15546154029885   12.30327888979672
C         2.83450739727195   16.41536178335133   11.43883348922457
C         3.06081506690781   15.07110810464661   11.15152058114428
H         4.03671242220847   14.75791588669599   10.80863153118018
C         2.05191095534282   14.13606475225298   11.27639033069737
H         2.24911802099342   13.10025488966355   11.04182440044087
C         0.79097336618808   14.52654425796269   11.69528103482244
H        -0.00152685365770   13.79899834846782   11.78941544063229
C         0.55634404434091   15.85603602055032   11.99156035208713
H        -0.42303216124349   16.17236002315927   12.32028026726350
C         1.56953996013211   16.79259206225412   11.86584446445814
H         1.35363400915157   17.82273802853446   12.10037227139844
C         2.99140673034910   16.53942454466696    6.46308571014133
C         3.13063664469925   15.08893665709578    5.98120942967698
H         3.08078986721832   14.39809431340524    6.81999212704680
H         4.09251636335915   14.97410953759448    5.48752385226712
H         2.34741011513872   14.84627857237576    5.26635497753986
C         3.16150250936160   17.45414239374644    5.24172255375144
H         4.13215449175078   17.28766123078994    4.78948997212634
H         3.08734096887161   18.49901993380308    5.51918262872751
H         2.38296288943109   17.23302778595174    4.51361568336253
C         1.61169603033757   16.81098809097746    7.05170429525235
C         0.66852129642921   15.81536311746416    7.26763301641521
H         0.88386282732447   14.78808954163383    7.02381074594270
C        -0.57080048569840   16.11069450786527    7.81369704938712
H        -1.28302654271623   15.31437657464955    7.97330491297834
C        -0.89513976189742   17.40857484000744    8.15764324109868
H        -1.86028208094542   17.63728922607513    8.58440769837671
C         0.03708216281385   18.41264998013130    7.95543371982396
H        -0.19682126014631   19.43187306280058    8.22778784556118
C         1.27118430781639   18.11520988639483    7.41186323419168
H         1.99703523715592   18.90597751880880    7.29641654225417
C         9.88064274345597   15.98596400198405    3.06543083737277
C         9.40789718529345   14.69307184660694    2.65331424162645
C        10.11066252980022   13.95284871301766    1.67033208404383
H         9.71685654907175   12.98623043883429    1.39726299293490
C        11.25098874576493   14.43030581607960    1.09637963689070
C        11.68615508678212   15.70631330151902    1.48494433509716
H        12.59103105933393   16.07113674081985    1.02632162563244
C        11.05112925708484   16.49157208660981    2.41380693312646
C         8.29856157028642   14.02658943638708    3.21411944429071
H         8.15928531682992   13.00765778039689    2.84425569986376
C         6.55111590597359   13.60152708310953    4.68701137946626
F         5.75296386438163   12.70464709757452    2.62897144886285
C         5.69000117111037   12.75403341153916    3.96736480590058
F         3.92674644455492   11.19579633288279    3.88144721448910
C         5.45910344306970   12.81140407380122    6.73747780587794
F         3.69673633750703   11.23488741132235    6.60004253437798
C         4.61321789980797   11.99098120591515    5.99200764914992
F         5.36587809215761   12.84316384393993    8.06869383808316
C         4.73273324358175   11.97481296827680    4.60534514516902
F         7.23575884308733   14.37382216416376    6.78958116042299
C         6.39338690290590   13.58962803901052    6.08141938227325
C        12.06636404824655   13.70509755738051    0.04073656163911
C        11.81296614791034   12.19174821631542    0.03033055609910
H        11.95725188856452   11.76719233551922    1.02047580045136
H        12.51336715610050   11.71317035763427   -0.65124464796861
H        10.80432378970922   11.96869813976943   -0.30876597178042
C        11.64650819439102   14.28509121758024   -1.31649536046149
H        12.13410054561593   13.75764764075205   -2.13302442035609
H        11.88925269862113   15.34355397370710   -1.37444600635310
H        10.57021801217737   14.17607145229648   -1.43303913033079
C        13.53781403896531   13.93094555427103    0.35724658200631
C        13.97949510420625   13.67602049689737    1.65378464489817
H        13.27532221130925   13.32950030293389    2.39681767194549
C        15.29759038618328   13.88212288289145    2.01126086196928
H        15.61506972392623   13.68399148333414    3.02455049912135
C        16.20638614767508   14.34762575868080    1.07564685424902
H        17.23636619162738   14.51584299424490    1.35331269724660
C        15.78244585686014   14.59528283379771   -0.21633939923311
H        16.48228282765866   14.95770468542464   -0.95534637241931
C        14.45997274675634   14.38734666498748   -0.57339627307398
H        14.15986629432889   14.59471357447075   -1.58816660641963
C        11.67708753867647   17.84117041832649    2.77956262391024
C        12.17817557412520   17.74204995069444    4.22700223986845
H        12.68380834981975   18.65934070268354    4.52062893290421
H        12.85931019473398   16.90166096506109    4.34163124176944
H        11.32498210068900   17.59552501707876    4.88488775055380
C        10.65338531510967   18.98347514437318    2.71804405860737
H        11.13269785164334   19.91451036105633    3.01555620442666
H         9.82849214867754   18.77483266867803    3.38904768999275
H        10.25780323616167   19.10403100014279    1.71653062154205
C        12.80474497125769   18.18063402920818    1.81166090305592
C        12.49834185757756   18.43865073393115    0.47515959745536
H        11.47416223246149   18.36810381901611    0.14106886279447
C        13.48417680643743   18.74029517580233   -0.44361583281915
H        13.21717614926102   18.93190844333841   -1.47299208164446
C        15.13185977884303   18.53089189206602    1.26815777970450
H        16.16279116020533   18.55765456088185    1.58952888190902
C        14.14017762258163   18.22865704961595    2.18813224742863
H        14.43581324367840   18.02140727923056    3.20336361758434
C        14.81107329192750   18.79048647049934   -0.04997442284091
H        15.58480782837044   19.02371469609383   -0.76608400511931
C         7.88160495866254   18.86916023020860    5.20515003064350
H         8.92708468222711   19.03439790489883    5.49071422458997
H         7.69452096656307   19.31032068758186    4.22175565578002
C         6.97712636021669   19.43937102598276    6.20514914537575
C         7.39820024843428   19.70886721660331    7.51499233481008
H         8.43219275722737   19.55154971906236    7.78330939625035
C         6.52985377160256   20.22104388493059    8.46001904573036
H         6.88718652196994   20.41651027195997    9.46123169897650
C         5.21762539428774   20.50274963103995    8.12610964911252
H         4.53843898071458   20.90923816841072    8.86016644239039
C         4.79469363736844   20.29366141124968    6.82195298214689
H         3.78678928885579   20.56547634184906    6.53886254976876
C         5.65518184902498   19.77385841237964    5.87868135022694
H         5.31590800180035   19.64008687734711    4.86026969186929
C         6.21769266652012   16.91639222288233    3.16124561752463
H         5.41592986219956   16.17080406522358    3.22038541485042
H         5.79251835840935   17.92064563347225    3.24860488466058
C         6.95803029263909   16.77943805264502    1.90498190995381
C         6.94313517842017   15.58950578391136    1.16379387659656
H         6.32299783392698   14.76797045280958    1.49038998358555
C         7.66867722115912   15.45895874005054   -0.00478982711382
H         7.63668622474982   14.52636382878123   -0.55027699497946
C         8.41479078518402   16.51831499074058   -0.48877260777989
H         8.97777371643282   16.42084327798714   -1.40479168543833
C         8.39815534869487   17.72256502767733    0.19853439495952
H         8.93043471942145   18.57363707445263   -0.20448396516969
C         7.68517862025775   17.85297452632678    1.37150506439405
H         7.66512035847524   18.80670571148958    1.88160602237528

