99
CSD_code = QEZVEY | q = 0 | S = 0 | Stoichiometry = C33H58ClN6Nb | MND = 7
Nb       -0.30472149367448   11.76403322777239    4.36011622638047
N         1.25843190260200   12.98658103669926    4.85054188782366
N         0.70877095619574   12.58259977768385    5.99178254977608
C         2.36980121659791   13.67602677685477    5.10560147594005
C         2.54488076017892   13.70224577820603    6.49027956132840
H         3.33897524072624   14.17042710459711    7.03513323667201
C         1.47102438457885   12.98169302942472    7.01523283405747
C         3.21048844435262   14.22914007343964    3.98814060051497
C         4.34294788821222   15.10126024833940    4.53174522609401
H         3.94393759106006   15.92818186013306    5.11457424348044
H         4.92398627816270   15.51018936376280    3.70788442281189
H         5.00828424054283   14.51833127179610    5.16421624849368
C         2.31103839651398   15.06045958976164    3.06508740607019
H         1.45113350940401   14.47255717004620    2.74698712055545
H         2.86419926595874   15.38776733788243    2.18671323969680
H         1.94315130058521   15.94025647872397    3.58933282017782
C         3.79366523893753   13.03808021541626    3.21433510234156
H         4.46867053596523   12.46928589606478    3.85103645581861
H         4.34925869410291   13.38687170164797    2.34565721672179
H         2.99153939471083   12.37466869452831    2.89175785815327
C         1.14619645127231   12.61122889794935    8.43659777253713
C         1.12917050732488   11.07832090817204    8.52766400894984
H         0.48296291877046   10.66039172766775    7.75472920780167
H         0.77038306568015   10.75768388462586    9.50333477637391
H         2.13302229815357   10.68415116718876    8.38056462644147
C        -0.23363653072629   13.17592524755705    8.79154764364085
H        -0.21766587827551   14.26351092462467    8.75497626222801
H        -0.52611384265174   12.86693546286261    9.79288118645100
H        -0.97657147513884   12.81891937885522    8.08297101830904
C         2.19265925597815   13.17154680899979    9.40122460445440
H         3.18134493350066   12.78625505940879    9.16355199400393
H         1.94708160874866   12.88151799710500   10.42057099177182
H         2.22001396297425   14.25745280835685    9.35075438920122
N        -1.99188813421324   10.74547772810802    3.80897008592446
N        -2.11236701415533   11.03551890111800    5.10249314660872
C        -3.13118818779087   10.21788043845899    3.36050964769410
C        -4.02887766504036   10.17161056036841    4.42750580598080
H        -5.03735840496279    9.81182556038894    4.41390122415995
C        -3.34036670699755   10.71135967023077    5.51575249908901
C        -3.25850492077369    9.76252243963626    1.93288270467101
C        -2.20739983857483    8.66876676168196    1.69510112662473
H        -2.41778888381123    7.80512963840200    2.32327502192571
H        -1.21448133104734    9.04305568238257    1.94524331220033
H        -2.21949984169103    8.34929885625318    0.65482025785271
C        -2.97654293814949   10.96050411696733    1.01812609527924
H        -3.01169274995348   10.65968549668508   -0.02766765744293
H        -1.99257910767857   11.36981721529346    1.24306568887197
H        -3.71649244306646   11.74214361187129    1.17916414120232
C        -4.65761960401471    9.21233518189790    1.65465413865374
H        -4.86964443668689    8.35969916897447    2.29551291727719
H        -4.73034149213163    8.88943546646784    0.61821962378730
H        -5.41155578336804    9.97614381166399    1.82993784453277
C        -3.79527891113835   10.98260675842735    6.92321880460780
C        -3.79803787889642   12.50474649248830    7.12542850602441
H        -2.83617431947918   12.92921833355145    6.83809301013135
H        -3.99743352796801   12.75470696561422    8.16552215221271
H        -4.56467760592026   12.96444836279408    6.50448514165251
C        -2.81012618569259   10.31868772168945    7.89249479120834
H        -2.85142733662007    9.23611106832896    7.78732397348661
H        -3.05419507396577   10.57736439969231    8.92066308877026
H        -1.79451715783315   10.64427394861087    7.67669772538241
C        -5.20134650284819   10.43058230718465    7.16280709969306
H        -5.91968547634821   10.90106748530935    6.49576130749731
H        -5.50576792218540   10.62929468384871    8.18823786704381
H        -5.22505693030798    9.35565238202288    6.99844799848275
N         0.43388429741274   11.72531093867923    2.30694932463400
N         0.69256267076185   10.21266792720271    4.36008123432282
C         1.11947326127485   10.80278146690938    1.66618782529954
C         1.56067946895242    9.63013038935241    2.28980779753981
H         2.09742024655353    8.90761405758546    1.70193099568820
C         1.32655353111917    9.34862390265529    3.64627126601447
C         1.44620515010099   10.97692903021298    0.17404530010591
C         0.70358228884874    9.88965267815372   -0.61474157636957
H        -0.36948456084675    9.99061574734623   -0.47482572839250
H         0.99798003327265    8.89626466399405   -0.28928753428038
H         0.92526479947858    9.98384807354046   -1.67592113549089
C         2.95915475015067   10.84058275614235   -0.04522947607234
H         3.32001948724225    9.85792625282318    0.24113228834807
H         3.49503018157685   11.58401476641162    0.53916648535190
H         3.19368560177756   10.99293248669312   -1.09680418403309
C         1.01623035274274   12.34433067663070   -0.36981539055656
H         1.30234842063222   12.41681089115894   -1.41720112164462
H         1.50886571797214   13.15470350883780    0.16471970717026
H        -0.06304313557220   12.47795900369647   -0.31864629415886
C         1.77768459572262    8.05453098486404    4.32620102718248
C         0.51243204012619    7.39130441065344    4.88619182616469
H        -0.03477516837033    8.10318470077328    5.50325516195462
H         0.77182907793316    6.52212503531839    5.48689967250506
H        -0.13680241336376    7.07416969818875    4.07266325435698
C         2.70290659116441    8.46030497986270    5.48015115181913
H         3.61302995593810    8.91304304187271    5.09200716242670
H         2.97109207017837    7.59134937954569    6.07736995916749
H         2.20027594222411    9.18879833708909    6.11354485031594
C         2.50276205740412    7.07988772392405    3.40206594650332
H         1.86270036275510    6.77336009825939    2.57817424349721
H         2.78007130186050    6.18976794985944    3.96363541738818
H         3.41167437315956    7.52303814743156    3.00218143016553
Cl       -1.44934746965319   13.74053902551428    3.67378297668697
H         0.16955741144609   12.51982914628493    1.72808283023320

