90
CSD_code = QEZVOH | q = 1 | S = 0 | Stoichiometry = C36H49N4Ru(1+) | MND = 8
Ru        3.45839579567821    4.78584222702039    2.93607358200164
N         1.66319116436928    2.36913847107594    2.64737082069199
N         3.08867145388286    2.04075910663385    4.24017634517712
N         2.29056965649743    5.32567202820723    4.34508711689543
N         4.89038760676162    4.57202426194415    4.18143982240595
C         3.35039237032330    4.94969783521777    0.65624435679599
H         3.04272080911021    4.23818097887853   -0.09373235414474
C         2.51638460724096    5.93925637384065    1.22266912255522
H         1.49206878626223    6.12307305567440    0.93472904568467
C         3.34927997460206    6.83210104685322    1.96279462018255
H         3.03367190997844    7.76911268774284    2.40104514169614
C         4.67194479968322    6.37691417579537    1.87018610205160
H         5.54822990463994    6.89813736681820    2.23175083976516
C         4.68203504627793    5.18101459568590    1.08983371239345
H         5.56677987683980    4.71712249691723    0.67462228984118
C         2.74411239742614    2.87435561278947    3.25099248256890
C         1.16693478381743    1.14392322915087    3.27433162546030
H         1.04057664803529    0.35213365762137    2.53360279773795
H         0.19523957302642    1.33804232489919    3.73869692702985
C         2.24921467410515    0.84315579626148    4.30507022307322
H         1.85236724782514    0.71411367640216    5.31346430826783
H         2.84378284756571   -0.04162227351545    4.05450168135209
C         1.05219002324737    2.80141087680018    1.43535496015608
C         1.49759726650711    2.24035262361131    0.23080096925185
C         0.89892681472832    2.66025534278208   -0.95041850602913
H         1.23029242753807    2.25197219999947   -1.89242993499689
C        -0.12869763471288    3.58326710979312   -0.93530009566204
H        -0.58192372337745    3.89957503244651   -1.86218440469489
C        -0.60346776460851    4.07193097905058    0.26649165312399
H        -1.44244632490026    4.74959173567057    0.26324321260722
C        -0.02872974251621    3.68802724955300    1.47174863542488
C         2.54790641328347    1.15157498880157    0.19071574354030
H         2.89375814040770    0.94815947921267    1.20738976483197
C         3.77678481138955    1.54186438608017   -0.63303239520971
H         4.44369762341577    0.68693839378936   -0.71899579449821
H         4.32135451098439    2.34989852269414   -0.15016442003323
H         3.49975666608142    1.85501926609094   -1.63605512494457
C         1.92457918532808   -0.13406275305796   -0.36474250013208
H         2.62371073597529   -0.96125196476906   -0.26676999353866
H         1.67756230427906   -0.02114391944809   -1.41652592591366
H         1.01137259032297   -0.38798560457508    0.17031934247983
C        -0.63669586092093    4.13234900347088    2.78276668517338
H         0.05831724582300    3.88474195262538    3.59351952534932
C        -0.90694373988858    5.63584720402970    2.84534573420147
H         0.01891778802921    6.19804942212677    2.75020594490714
H        -1.36686519886945    5.88312387024786    3.79943548423364
H        -1.58775678262504    5.94993282927460    2.05963563870004
C        -1.94706919381266    3.36438995247795    2.99658040012270
H        -2.35963985070788    3.58374446292263    3.97866200998426
H        -1.79113894715057    2.29077932813437    2.91738434825617
H        -2.67870071702434    3.65197261210288    2.24600900137182
C         4.28304219541447    2.00501459957681    5.01369825238999
C         5.45410783344391    1.49164280346910    4.44411775835292
C         6.56297127976223    1.32108182695672    5.26259293847404
H         7.47245709588680    0.91410638378185    4.84903434780026
C         6.51321372991173    1.64250801505008    6.60507933976609
H         7.37828493317017    1.48195161534401    7.23064120082389
C         5.35782882034897    2.17199423521288    7.14672262421857
H         5.33165214034764    2.42412874760312    8.19533098221937
C         4.22796078600289    2.36432226259713    6.36297918772903
C         5.54137099913689    1.13227554677825    2.98046356478453
H         4.59426510425194    1.38764162231075    2.49705975835335
C         5.79796764964267   -0.36496069156590    2.79563547241657
H         5.03866851052635   -0.95617113938663    3.30353616525611
H         6.76759019495424   -0.64494126868688    3.19799127129355
H         5.78238465030883   -0.61827429320203    1.73843306864579
C         6.62844652354102    1.95890131870920    2.29044364443860
H         6.41912723381243    3.02040538955151    2.41637244860901
H         6.64960030609881    1.72912063957725    1.22797713362754
H         7.61050737921776    1.74451492324651    2.70287758368371
C         2.98036658494547    2.96385879797668    6.96625528421060
H         2.24135451493473    3.10329346805399    6.16926046781489
C         2.39470422157205    2.04177821310689    8.03866373376823
H         2.21505147334455    1.04531940011167    7.64131496696640
H         1.45300292859041    2.44156650251173    8.40702752407817
H         3.07675840942567    1.94919055850191    8.87927721081249
C         3.28664699552851    4.34286819852845    7.55572230726028
H         3.67965187837595    5.00037295213641    6.78171308484708
H         4.01558078969647    4.27212356083638    8.35799838303377
H         2.37932068570522    4.77954560767196    7.96538813297732
C         1.60884821549878    5.91323891188470    5.06996262898363
C         0.75552727291222    6.59392315193299    5.99737405907613
H         1.35049115274900    7.01847640758981    6.80625689599603
H         0.02817941672215    5.89770401034370    6.41538955733016
H         0.22523657198039    7.39914561837915    5.48895884900015
C         5.88046069172431    4.75417869085621    4.74790934521000
C         7.09507923147358    4.91318965127878    5.48885585150941
H         6.90485445031192    4.72053024229440    6.54432669916231
H         7.47770277443186    5.92718389433836    5.37169788838669
H         7.84043337412577    4.20417631088884    5.12911981914643

