86
CSD_code = QEZVUP | q = 0 | S = 0 | Stoichiometry = C37H37BrN6OS3Zn | MND = 5
Zn        7.62483961605566    5.40860864274928   11.79323909870591
O         6.72972582283579    6.85037858566044   11.01538195665660
Br       10.23986733566817   10.62220427814214    7.95884998367213
N         6.94573392270287    4.92592821589529   13.58551827008436
N         7.27449971861149    4.14986342823778   15.64892139978477
N         9.24244766560549    6.61141722273527   12.40339320045678
N        11.28214955300713    7.24901617279121   11.74632711521763
N         6.88969576725023    3.94412105077808   10.53611545001648
N         6.88658804518691    1.97413937265604    9.48939632100461
S         9.19168212000894    3.43889454014374   13.87822351826426
S        10.82445080684219    4.56695299997936   11.68917777036487
S         8.99531003686042    2.37096667343668   11.15121243111510
C         9.20567223946810    3.88031225435013   12.11255357465253
C         7.42170610894801    7.64866563466667   10.24977250386539
C         8.48162181864547    7.18547157115731    9.44902677122125
H         8.67289888449921    6.11706158313486    9.41845462438189
C         9.28705465639249    8.05193265180281    8.74519798587413
H        10.10774507255561    7.67985332183454    8.14846616290101
C         9.03780953283689    9.41045499039060    8.81438877083331
C         7.95347811818743    9.90181365704593    9.51881389568295
H         7.75520925760924   10.96342285624902    9.53951985644834
C         7.14300532820803    9.02903688879842   10.20917208466662
H         6.30384953090803    9.40211834467147   10.77599197705102
C         7.73017575849879    4.22208207169301   14.37328713175922
C         5.91531619993249    5.36920283840671   14.37463343423205
C         4.83155340695822    6.16637313132078   14.03808113201637
H         4.72890909339752    6.53030844163278   13.02856150612824
C         3.93432704824748    6.46514893740268   15.04265241770320
H         3.07709336401478    7.08466020059601   14.82742817979165
C         4.11185546088221    5.98298713917548   16.33948363685908
H         3.38739568715697    6.23831363969576   17.09826080480239
C         5.19038781479165    5.19061305634793   16.68541530328939
H         5.30176395683582    4.83712605468186   17.69796142487459
C         6.10263084904292    4.88380340488723   15.68607340951984
C         7.93445872047797    3.44423735789119   16.73025447079565
H         8.83198238680488    2.99593186656202   16.28798042454703
C         8.36543156835614    4.41989291401525   17.82290548543664
H         8.94577519264289    3.89286093523476   18.57508436534890
H         7.50503562890281    4.87620596744807   18.30356994341119
H         8.98228600150373    5.20838536656915   17.39816695735387
C         7.04440039127055    2.32392187894639   17.26356578386308
H         7.58818862583622    1.74997506177422   18.00867747919153
H         6.75651282602347    1.65665440594284   16.45451648810021
H         6.14296229304831    2.72160887831208   17.72046148874334
C        10.41300705108470    6.22978265052369   11.93984351075769
C         9.32797741730526    7.97733411045026   12.53044729553176
C         8.38675607132256    8.88020166467283   13.00195504275976
H         7.41995471036337    8.53216638065835   13.32820127923396
C         8.73756878847376   10.21387832764993   13.00701617633581
H         8.03089443040987   10.94950029325190   13.36024804937288
C         9.98450490899393   10.63795746171171   12.55009594520925
H        10.21437919038725   11.69278846298998   12.54988007224592
C        10.93696730071421    9.74704836255645   12.09495047029104
H        11.89122970653699   10.10409990159772   11.74263394900009
C        10.60421217535933    8.40083391895891   12.10264799561782
C        12.64549068949128    7.10361052582966   11.27493448851492
H        12.80681180780660    6.02362066846202   11.16539738684891
C        12.82303644566229    7.76554175024738    9.91130961954006
H        13.85034161616926    7.64787571300918    9.57763179845165
H        12.58884400893662    8.82524156420253    9.95254360454666
H        12.16773192032386    7.29729377076780    9.18196985928174
C        13.62943417747993    7.63717929888464   12.31440801493772
H        14.64576946340443    7.41645723189803   12.00009851841996
H        13.45370358070722    7.16281832859761   13.27748711461332
H        13.52878157543501    8.71170455861542   12.43405990246646
C         7.51285285430142    2.80145260637808   10.36088559358528
C         5.77674327870581    3.89126921381361    9.73244113033774
C         4.78355438135174    4.83882757014545    9.53262953004431
H         4.83748334759096    5.78485020514087   10.04518043676870
C         3.77154712061627    4.51656073161807    8.65271580685637
H         2.98126739419817    5.22759067827018    8.46568229039207
C         3.74644778518649    3.28823071487776    7.99268291389634
H         2.93685874840710    3.07352317579769    7.31118872714358
C         4.73151830412447    2.33764184115475    8.18152408095621
H         4.68896943200312    1.39791980484016    7.65429952359125
C         5.75714328112289    2.64896213823648    9.06219727639997
C         7.36035169081896    0.65828848347181    9.10825162659076
H         8.28799285045506    0.50304676657312    9.67214774282835
C         7.68453664023818    0.61458741482125    7.61672047443148
H         8.12311792925735   -0.34736288980580    7.36643574990569
H         8.39741589036974    1.39629619917059    7.36529246789625
H         6.79056560716916    0.75678667022553    7.01655969159884
C         6.35542747642491   -0.41532920490586    9.51951232621475
H         6.76908596980064   -1.39907731971731    9.31594472494450
H         5.42284346899763   -0.30999589622245    8.97299091235883
H         6.14279627898121   -0.34193233530764   10.58352088857773

