97
CSD_code = QEZVOI | q = 0 | S = 0 | Stoichiometry = C33H57N6Nb | MND = 6
Nb        6.63234960823004    0.01162021549487    0.94586884185268
N         5.75338654278435   -0.23864860213091   -0.68579207092712
N         4.84720175370020    0.11779285365289    1.73250898000302
C         4.53027998007883   -0.29109726112493   -1.11750510641931
C         3.47451634007281   -0.12089982968777   -0.20495474258865
H         2.46982217644352   -0.14621227642093   -0.58843030260904
C         3.67498205913155    0.14779226515290    1.16155971972928
C         4.22776870235966   -0.49618306383804   -2.60762980705782
C         3.41360585052829    0.68687677363814   -3.14200265383113
H         3.96011530946261    1.61495720499903   -2.99284062027069
H         2.45571050086059    0.76834066227689   -2.63614863212149
H         3.22875756729714    0.55968619401403   -4.20725147441265
C         3.44152259551105   -1.79994386207379   -2.78157538158039
H         2.48710606687349   -1.75164793497310   -2.26460264976456
H         4.00613495084226   -2.63683212190708   -2.37605346142852
H         3.25322134521579   -1.98669169771359   -3.83732646696227
C         5.53831615258068   -0.58737347208490   -3.39265139111836
H         5.33345917896732   -0.74124384401075   -4.45024553085286
H         6.14217998431888   -1.41562663428000   -3.03051631410386
H         6.11252947675378    0.32921983227376   -3.27775193731203
C         2.50816927348367    0.58604873309147    2.06565882264295
C         2.54894854362117   -0.24810265418286    3.34996718261739
H         3.53340011548916   -0.17262986975835    3.80495948538217
H         2.34689902616652   -1.29368536125806    3.12671152500476
H         1.80319149408485    0.10701629786606    4.05838565873345
C         2.76110169223164    2.06101833654041    2.40575720563170
H         2.66443000241275    2.67328457221098    1.51180958164416
H         3.77028170881742    2.17935292366836    2.79713209788575
H         2.04664872895934    2.41057254734134    3.14860501946434
C         1.12931717486443    0.44328083014069    1.42319791027433
H         0.36579608049799    0.73070007011689    2.14417669836013
H         0.94383292220069   -0.58604505776271    1.12547604756551
H         1.02955680646845    1.08983121581382    0.55493539683476
N         7.60928796711509   -1.79377437508574    0.84010530451317
N         7.10395980911778   -1.67635494026814    2.07062887281646
C         8.03693490089006   -3.04556637429672    0.65234378578096
C         7.80269840757167   -3.75602999625084    1.83003598666908
H         8.02926577088259   -4.78527755010400    2.02177069198154
C         7.19392685360861   -2.84769992519044    2.70029460446394
C         8.54804766027314   -3.50535813763398   -0.68521029747434
C         7.32178987941902   -3.94382172849818   -1.50016888675956
H         6.84906271709867   -4.80910137472769   -1.03974228884474
H         7.61102620409297   -4.20368572655316   -2.51637207266417
H         6.59341010899362   -3.13347140459600   -1.53093853129455
C         9.24404224771838   -2.34051245930497   -1.39815748169755
H         8.55358198611884   -1.50472339631039   -1.52369639397385
H         9.59047058929952   -2.65447740594063   -2.38070563570174
H        10.10385053854835   -2.00117570590818   -0.82220904196986
C         9.52152450751666   -4.67494352683349   -0.52641119099190
H        10.36214001117037   -4.39060393963793    0.10307804726095
H         9.90422225572129   -4.97556247471550   -1.49934461042293
H         9.02672175125573   -5.53137877569548   -0.07544833131036
C         6.58172455974865   -3.04665819261054    4.05874959098458
C         5.07786703008641   -3.26153798006428    3.82944842354663
H         4.90617952251314   -4.18328539971622    3.27707810298528
H         4.67542652652703   -2.43140872885909    3.24803597545943
H         4.55127163859737   -3.32101832696969    4.77953690572475
C         6.78856199163129   -1.78461854235294    4.90165374656002
H         6.35944696856419   -0.92462221973566    4.38861072534311
H         7.84962086388546   -1.60474958727756    5.06680111385713
H         6.30283545386804   -1.89318328572909    5.86912950210913
C         7.19068661894438   -4.25679389585807    4.76819041084815
H         6.75517039571717   -4.36421814757576    5.75923303298750
H         8.26680180804109   -4.13666211327486    4.87496454060003
H         6.99785366117604   -5.16990075685732    4.21067730990005
N         7.02161761383562    1.99724930923567    0.80871013244838
N         7.42778388803251    1.70394261666106    2.05640072971381
C         6.86426052829119    3.32301091592718    0.68843263918525
C         7.19030454651083    3.90221261521659    1.91069390951236
H         7.17421985730156    4.94344404904513    2.16035197643257
C         7.52695791735342    2.83543068958069    2.75197044216623
C         6.32878988788025    3.91889673737833   -0.58426685900324
C         6.56601142108995    5.42955591818488   -0.62353759274616
H         6.04167549660607    5.92303845357645    0.19090677394405
H         6.20069295797830    5.83923458492956   -1.56270707658351
H         7.62735009753938    5.65306634920294   -0.53914093863022
C         4.82243416818956    3.61934578673888   -0.62437988152264
H         4.65387213508417    2.54439264606374   -0.53539319194253
H         4.39056958673805    3.97502332990521   -1.55785151762802
H         4.31939170892052    4.11771226115820    0.20193454662089
C         7.01179469844539    3.24983419097762   -1.78271149752149
H         8.08450869519222    3.43564887169016   -1.76349821008826
H         6.60996092695509    3.64527192895604   -2.71349887951048
H         6.84085916666939    2.17278878712734   -1.75325833399081
C         7.87260666077937    2.82311429183659    4.21570116324755
C         6.58997619972904    2.46796626454709    4.98237143429745
H         5.83901710158208    3.24321509469305    4.84288038572881
H         6.79645588988734    2.37026922122456    6.04615353217740
H         6.18294364581573    1.52786946405294    4.61320727547819
C         8.38859711050644    4.19041980484974    4.66728480815067
H         7.62034988705886    4.95098508014981    4.55240254135854
H         9.25768438083960    4.48440329228351    4.08237618393132
H         8.67541621382477    4.15150543173482    5.71612691615694
C         8.94033572640092    1.75525485165637    4.47797717139534
H         9.16593955503109    1.70007881140570    5.54104915891755
H         9.85703333707844    1.99524119330698    3.94179069296607
H         8.58883807592589    0.78022556602648    4.14552802371405

