96
CSD_code = QIBFEM | q = 1 | S = 0 | Stoichiometry = C48H44NP2Ru(1+) | MND = 8
C         3.33452175294914    4.38571160439796    0.24554137947574
H         3.67343642959247    3.48935984326110   -0.25518911361836
C         1.96834977425786    4.73791350803676    0.46504513166363
H         1.11678485481869    4.12708543941176    0.19604537688057
C         1.92726318613655    6.07360719681590    0.90962720814108
H         1.03476356507067    6.67293730109639    1.03725812386784
C         3.26039619760853    6.56551186158571    0.96970624506179
H         3.53963264029565    7.60132680967883    1.09642543101084
C         4.11996084820915    5.52819024413633    0.53063262616595
H         5.18019486326618    5.63088745126008    0.33987221289268
C         2.44128195405533    7.30844389041631    4.37085310968498
C         1.72927680512462    7.84057377136280    5.58860171560189
C         0.37885959894092    8.16194721612501    5.52296516926272
H        -0.14932886503564    8.07797468000984    4.58295115211815
C        -0.28937291529755    8.60628367308452    6.64977875922246
H        -1.33596424080798    8.86241033960670    6.58832965978231
C         0.38651384310832    8.72694224138066    7.85264381703984
H        -0.13356290578897    9.07749482678079    8.73051574403983
C         1.73080867430448    8.40289280018027    7.92556328995448
H         2.26142801560782    8.49960788092672    8.86029190938274
C         2.39987860334692    7.95852440626959    6.79863705984083
H         3.45023525714764    7.71051217355247    6.85441107108346
C         2.45594634123974    1.86080977359730    4.51610501670668
C         1.92223710769343    2.23698794881916    5.75099845546959
H         1.24238413392943    3.07950493721558    5.80660007003360
C         2.23162323385374    1.52670398485853    6.89514658782907
H         1.79977865086423    1.81746707342720    7.84114463581471
C         3.09022096277976    0.44061847145326    6.82515840553712
H         3.33028960710731   -0.11606399848136    7.71777876339914
C         3.62924443401146    0.06811690606812    5.60625413845744
H         4.29161051393890   -0.78180324295630    5.54443527418176
C         3.31783081385960    0.77317732493796    4.45572929827274
H         3.73450363941489    0.45983138682062    3.51103491278842
C         2.06025603075120    1.63893193692030    1.70858983987363
C         3.31374818941381    1.25175102704666    1.23893463430283
H         4.19787643076550    1.69996445242186    1.67232816318360
C         3.42662998074323    0.32078854489520    0.22402838874763
H         4.40385694243134    0.02120526099556   -0.12479787545058
C         2.28625774397738   -0.21964955811675   -0.34874593885540
H         2.37064339503814   -0.94374914171572   -1.14437246504910
C         1.03780506494189    0.18100145652899    0.09545909446266
H         0.14679233963164   -0.22746232624077   -0.35701397576849
C         0.91916279763195    1.10595132710978    1.11911227316334
H        -0.06368984354078    1.40924675184689    1.44844843075593
C         0.21482540307691    3.02592914874886    3.34262120492730
C        -0.50483189513985    1.96054002345025    3.88470810289255
H         0.00861019644925    1.04844505675262    4.15448357848217
C        -1.87018372347140    2.06522361521609    4.07011959212932
H        -2.41775496616578    1.23410696374045    4.48777995904896
C        -2.53777457939852    3.22828114992247    3.71689786065410
H        -3.60356789820160    3.30656224480754    3.86524500899087
C        -1.83463594110202    4.28399336501065    3.16350609654632
H        -2.35201793725953    5.18637695031930    2.87303811704742
C        -0.46681959424566    4.18031079111770    2.97498171124439
H         0.07331330864628    4.99587341119791    2.51108592337599
C         5.16192342929892    5.17002152448459    5.34899360829979
C         4.28045461788951    4.51809534093310    6.21104336840032
H         3.63272653757175    3.74903629628929    5.80839000638700
C         4.26415096594199    4.81171502577128    7.56178279223568
H         3.58199564596204    4.29095229225147    8.21692738012293
C         5.12720911912943    5.77088654582503    8.06815841533938
H         5.11753972659257    6.00601972715101    9.12118928587944
C         6.00563101930210    6.42341636208880    7.21863590169473
H         6.68293606748314    7.16694912245749    7.61091523380921
C         6.02723828244320    6.12877157238369    5.86513174784928
H         6.72283112420169    6.64325082113943    5.21954102748231
C         6.40698994464916    5.78613046693642    2.91582552418748
C         7.71069663233399    5.35863319926158    2.68863400215212
H         7.99112046497150    4.33294782953826    2.87529071154531
C         8.66157162479792    6.25219053963982    2.22399302546152
H         9.66954695143035    5.90944453639592    2.04576927239709
C         8.32937837047239    7.57618299935370    1.99355087631465
H         9.07453047786100    8.26646082118177    1.62957354978470
C         7.03743720856592    8.01446360685894    2.23924530109993
H         6.77504967841448    9.04890996615380    2.07457185766987
C         6.08553648096928    7.12461181516688    2.69745815771848
H         5.07757586218794    7.46328622983617    2.89623055614119
C         5.91100979810798    3.07713310175567    3.55977339961113
C         6.19144816154276    2.32059248648635    4.68985682100221
H         5.93743471648506    2.68953273121678    5.67232661460840
C         6.81415258861877    1.09019032488968    4.55784206071640
H         7.03543430313786    0.50968869991538    5.44061860690759
C         7.16072762499728    0.60864109608465    3.30725658760997
H         7.65077788097537   -0.34816120039724    3.21215473424395
C         6.88563373344318    1.36090933191553    2.17509772918353
H         7.16240185630268    0.99245755122400    1.19843504514664
C         6.25732910308377    2.58521783242032    2.30008524311609
H         6.04404611015530    3.18745118218546    1.42393902511491
N         2.17469911218534    5.86496243422317    4.21420287027738
P         2.01767398786132    2.87256118008318    3.05315716660834
P         5.08982813800770    4.70375928122082    3.57977887857780
Ru        3.07483724595247    4.84971706137329    2.43712578017866
H         3.52101877400772    7.44354348509682    4.48207495392655
H         2.09967350668801    7.82894099802382    3.47172321047301
H         1.15772099134979    5.74155938283353    4.18030993363107
H         2.48385331252057    5.41201422295325    5.08175937759910

