43
CSD_code = QIBGAL | q = 0 | S = 0 | Stoichiometry = C9H24B9Rh | MND = 8
Rh       10.30079449107692    4.90235231360327    2.76017669629167
C        11.69643141427912    4.86342005002530    4.43237827618307
C        10.17577329406480    4.53691945610234    4.86616337269286
B        12.23222166967078    3.88158048256504    3.22086490565826
H        13.03774042047304    4.25665194151101    2.44661992206308
B        12.74719950436523    3.54271326640596    4.87676325583775
H        13.86008625901701    3.79682196881460    5.15945696359615
B        11.44978374307724    4.01169566256268    5.92494015807538
H        11.60460459418317    4.64351043367553    6.90617860214983
B         9.45708586700216    3.28324004621606    4.04115107376545
H         8.28554432581974    3.25577780985619    3.90055327334844
B        10.75375785420902    2.77945388265952    2.86478565960110
H        10.54073714396726    2.33265273842884    1.79337529213725
B        12.14908326356490    2.24727887294437    3.81917941396135
H        12.85121633880780    1.40681341766604    3.38573595260373
B        11.69767971289691    2.29779687847538    5.55551388658258
H        12.10108005020136    1.53139242788835    6.35133645450840
B        10.07068713310876    2.98771978330147    5.67004039905795
H         9.28384741973105    2.86226374554385    6.53551013207353
B        10.44748366658920    1.87271298703447    4.35697336493994
H        10.00382459062542    0.78500521568551    4.28070420586775
C        12.20791751710464    6.29052836955258    4.60421308416493
H        12.45307544652457    6.51487551703556    5.64357801035542
H        11.48424604508603    7.03827953187795    4.26880336620788
H        13.11713939657736    6.42355988785093    4.01888659277780
C         9.34259526985299    5.69135946660143    5.41436011188912
H         9.87408651525042    6.25166914429649    6.18439856645267
H         8.42865750349309    5.29938707267554    5.85826499718701
H         9.04412897360131    6.39867322490654    4.63050902600874
C        10.86922967153616    6.07953391676782    1.00270936041870
C         9.86050979471940    5.14557750927692    0.70035805533052
H        10.10757467660791    4.31089415215743    0.05153314426998
C         8.65189255006391    5.11119530138854    1.43277040400569
H         8.15658175737534    6.04208502089701    1.69939997290408
H         7.95749003112137    4.31117282727286    1.21006191967538
C        10.53583256747025    7.49838525469180    1.43474653994418
H         9.76614616964973    7.54466698665945    2.20797064920743
H        10.16887886397465    8.06614196016580    0.57585629509783
H        11.42947240414669    7.99959521195748    1.80401517535022
C        12.17099012412775    5.99737173580289    0.24144925980041
H        12.11459067037290    6.61692904062491   -0.65681285882556
H        12.38603928395874    4.97498443411402   -0.05803087741106
H        13.00176201065470    6.36436105245035    0.84155794418198

