54
CSD_code = QIBKUJ | q = 1 | S = 0 | Stoichiometry = C22H26ClN2O2Ru(1+) | MND = 9
Ru        1.88149220293230    5.55758615922353   10.67842284238194
Cl        3.06252903761793    5.48544197263533   12.69197925148606
N         1.13170176326033    7.23510928896830   11.45225573766529
N         0.38396998355782    4.84940635398304   11.78616933036877
O        -0.40618665637446   10.49110239201227   13.46401563512850
O        -2.46032970773209    3.43487168104093   14.41400728455871
C         1.65582025317204    8.44240962082957   11.25478528130322
H         2.49323576342832    8.50014406128061   10.57149431242009
C         1.20411043412811    9.58315109141996   11.88120670512357
H         1.68334169674276   10.52399623065726   11.67026265499296
C         0.14132392000086    9.48441041668806   12.79055258733871
C        -0.38817585861121    8.20836957200029   13.02053460114109
H        -1.18667783115512    8.11106544828096   13.73565394368162
C         0.12682391928217    7.11095132669421   12.35472770548466
C        -0.29875043335820    5.72731844712213   12.55163769710835
C        -1.27599741553277    5.32080430824066   13.45207226988149
H        -1.78808583134145    6.05906552676952   14.04408730723476
C        -1.56016288541006    3.96128215954868   13.59154012557688
C        -0.82244245896986    3.06376831285457   12.79698003844538
H        -1.00425314343797    2.00673697971438   12.89353396110068
C         0.12473866581572    3.54708552200583   11.93147593985957
H         0.71787786030270    2.86495792453097   11.33697347244935
C         0.10268998100261   11.80326983651187   13.29830289303084
H         1.14970496996361   11.86280304586506   13.60460385176838
H        -0.50072335008846   12.43282121860839   13.94871369053249
H        -0.00332650399455   12.14171380281679   12.26469682874361
C        -3.20752214180912    4.27723379048873   15.27278518165635
H        -2.55375694440355    4.82606621652203   15.95505333288439
H        -3.84989288692190    3.61150588664121   15.84528354929020
H        -3.82497841741984    4.97652330122818   14.70325942099789
C         1.40466437099384    5.59543639492242    8.41408743219436
C         2.52266232963040    6.43264459368142    8.64837757738881
H         2.50713196483880    7.44631940834670    8.25861248072010
C         3.68489496543057    5.95133525625882    9.27353493629462
H         4.55293031754040    6.59400091583028    9.37309504237809
C         3.79007338069937    4.58726821163835    9.65575014696396
C         2.67765545202580    3.75303688845391    9.44512155089688
H         2.76045990123335    2.69319442135438    9.66118593151180
C         1.49207705295900    4.25859530216215    8.86010757923690
H         0.68037517745701    3.57192393006034    8.64425910113576
C         5.05360971459772    4.06507527040960   10.25211756026584
H         5.92177089699740    4.50923637824810    9.76950651768000
H         5.10933081515678    2.98215381005642   10.17438213813148
H         5.08838665160681    4.33204694462632   11.31147357969688
C         0.18715640804122    6.10650160807438    7.68152404660839
H         0.34871421625439    7.16492042617239    7.44822632273522
C        -0.00615996413402    5.34995386103657    6.36439677584034
H        -0.22353951536302    4.29996311466202    6.54243229636963
H         0.88771298303341    5.41868130011468    5.74896425316982
H        -0.83663354701683    5.78034777154452    5.81184733555148
C        -1.05707714991080    5.99919698745085    8.56816011334043
H        -1.30661618810931    4.95972621643986    8.76861859712617
H        -1.90677108731017    6.46184552010930    8.07361511203190
H        -0.89020713131819    6.50852357316637    9.51973613910458

