60
CSD_code = QIBLUJ | q = 0 | S = 0 | Stoichiometry = C26H26Cl2NO3PPd | MND = 4
Pd        7.55639403664927    8.58268332582542    3.12217289373472
P         8.31054752302187    7.79626238513666    5.13111986469225
Cl        6.01815815155711    9.78395073741098    4.19002313176681
Cl        6.62875432186560    9.12376008049188    1.12907029153054
N         8.94878005991666    7.46017137515096    2.06716863036434
C         8.43019244652887    6.41420669019598    1.20083104027622
C         9.70535093000623    5.81474459942236    0.57489089087154
O        10.76637655773891    6.59174551730269    1.13879119544560
C        10.21350267101111    7.50837699055817    1.93862945902186
C        11.17214783418340    8.50690046132493    2.52161012619769
O        11.46181495155294    9.47564747358077    1.53828015748920
C        11.24246766623789   10.77825634942153    2.10087680100891
O        11.31416184184245   10.58026040474987    3.49671188163927
C        10.67082908876491    9.34880404076535    3.72698350241754
C         9.87945145032390   11.32690805055235    1.66122675448071
C        12.37840237657752   11.69794516986695    1.66932616644634
C        10.98409530956861    8.75813622764034    5.06605699790319
C        12.24352283428234    8.93533921468663    5.62498630902488
C        12.54296829186534    8.40675667790454    6.86687742413854
C        11.58152680539854    7.69284077214814    7.56516975333378
C        10.32466748368285    7.51485928759850    7.01962670760340
C        10.01181980608444    8.03741617318829    5.76529208913360
C         7.34387018434588    8.05954212842408    6.64685604430151
C         7.33800164104289    9.35808410838115    7.15147978280563
C         6.59818061982100    9.65678504742917    8.27823256292246
C         5.85851381801988    8.66448492578771    8.90355956070455
C         5.86098963372856    7.37453475582146    8.40123797854179
C         6.59906694782790    7.06672475772386    7.27116663280880
C         8.17378063488698    6.00443828734027    4.83540812304837
C         9.16041082282227    5.06097395063328    5.08780226390450
C         8.94329303396917    3.73330502793900    4.75387012238712
C         7.74726415912024    3.34336496589249    4.17543520888188
C         6.76085451220660    4.28422691464491    3.91232958247270
C         6.97645095920617    5.61317734469835    4.22717014983177
H         7.85913759595845    5.69114338392803    1.79105978802834
H         7.76241783623187    6.88296055056870    0.46943140618506
H         9.74113696211597    5.92129553331844   -0.51137938374471
H         9.86689622521243    4.76810578502113    0.84598287471626
H        12.10130843628004    7.97276405543449    2.77964358987118
H         9.57323954792001    9.50261734049356    3.64362526654093
H         9.05910990963524   10.62866343606732    1.87941641427982
H         9.68787992823620   12.26358589762303    2.17801462754157
H         9.89184277666144   11.49790222803105    0.58928571388167
H        13.32168202603976   11.30717009264904    2.04047287903871
H        12.41066507249944   11.74085950972592    0.58567459395351
H        12.21563880315335   12.69077281063627    2.07569306187708
H        12.97322586960618    9.51338248176725    5.07935007057651
H        13.52261742850538    8.55741917624756    7.29444958766370
H        11.80842894557997    7.28373931564812    8.53835914439691
H         9.56533285143613    6.97627134327782    7.57007852898166
H         7.90352155734968   10.12598570657107    6.63932497077210
H         6.58689077254386   10.66479944966087    8.66448435612386
H         5.27272096730103    8.89944536477162    9.77980548533710
H         5.28088105966337    6.60312914781162    8.88647633174690
H         6.59260079952210    6.05908836454650    6.87861154938744
H        10.09602784275558    5.36183473041392    5.53757572895573
H         9.71298769686516    3.00102542681613    4.94868790555283
H         7.58340488593245    2.30653577229646    3.92266833934409
H         5.83209023252496    3.98024623467738    3.45262041438962
H         6.21690456481844    6.37164264234880    4.00461667347113

