124
CSD_code = QIBPAU | q = 0 | S = 0 | Stoichiometry = C69H44N2NiO4P2S2 | MND = 4
Ni        2.56259349416602   15.76994693373278    3.82664141573298
S         3.58042773000003   18.34853023463358    5.45510008612905
S         4.20701378636266   16.93685530586572    2.81019007232885
P         0.71091561555342   15.85870815631545    4.97155998076050
P         2.11154777932459   13.92713593703341    2.74676604295483
N         2.56329637143307   12.72226694416246    3.83974477181575
N        -0.50355138774021   16.35642706063745    3.92026772224064
O         0.26989979377876   16.67209037107296    6.31173885887428
O         0.27114936771652   14.34399751950850    5.38605905149610
O         2.97505955052141   13.45172402258720    1.43799237733849
O         0.61579467768570   13.49396345140392    2.28011352424494
C         0.70421283590848   16.19948231120993    7.53623183632392
C         0.06579086743248   15.11889318265782    8.10464049342310
C         0.53977123536298   14.61877213671396    9.34997005945267
C         0.04548426936486   13.42793545979986    9.92544948502664
H        -0.72443167683058   12.87473813268860    9.40878197683657
C         0.53746806529124   12.96426088776581   11.11404325793976
H         0.15323827312381   12.04763634030886   11.53685049630617
C         1.54446027226661   13.66691394409526   11.79177575240793
H         1.91466737118120   13.29099144604189   12.73396262411143
C         2.06046068934725   14.81051107932403   11.25042526503288
H         2.85036374985234   15.34957673391927   11.75340881765305
C         1.58936406428455   15.30625125045168   10.01674638120791
C         2.15918604717255   16.45018067634065    9.41935691620136
H         2.94837049318774   16.97270456343748    9.93918269139014
C         1.74463071306771   16.87411012635905    8.19069402602050
H         2.19457713382871   17.72132740497886    7.69858614611489
C        -0.89475083135817   14.08701439608641    6.07988416561006
C        -1.05830420772695   14.48655698127876    7.38925953194065
C        -2.32767215516521   14.30130309312753    8.00717026206999
C        -2.63777000829780   14.85933523760670    9.26554201568239
H        -1.88938203461153   15.44389380572942    9.77842499644824
C        -3.87328437100740   14.68672880633936    9.82533503397340
H        -4.09752151389995   15.12759193557456   10.78538762195394
C        -4.86009500016940   13.94523250971348    9.16013413955921
H        -5.82778261784527   13.81204472206131    9.62073973361283
C        -4.59815580667820   13.41068111298156    7.93005886596056
H        -5.35704033381298   12.85508435836051    7.39794001102448
C        -3.34093216371922   13.58582001887097    7.31734438870870
C        -3.07495223775317   13.08562919782100    6.02547194494484
H        -3.83956894368133   12.51667563173910    5.51756974664551
C        -1.88971731210761   13.35702851199736    5.41019830455448
H        -1.68099357398235   13.03780752582545    4.40129080055517
C         2.58490022177638   14.01922952632954    0.23956523256300
C         1.49457535938535   13.49400792463741   -0.41845974307200
C         1.06110717579083   14.10708430087428   -1.62600606971565
C        -0.13035090401287   13.72792716067309   -2.28149351676557
H        -0.73534254559819   12.94095344621543   -1.85648259686995
C        -0.52865608426592   14.35261518580791   -3.43063476909383
H        -1.44654861909502   14.05630344195024   -3.91664000436311
C         0.24362700087962   15.38358840319903   -3.98594189323514
H        -0.08163078976831   15.85960743096702   -4.89902180687903
C         1.38999131780440   15.78961392011385   -3.36292923803226
H         1.98167016796470   16.59632262298431   -3.77126299146958
C         1.81997190041409   15.18063386786372   -2.16540853087213
C         2.96418288630647   15.63821845858762   -1.47870909523731
H         3.53693253417077   16.45052796480634   -1.90053881359222
C         3.32577925038977   15.08825541193070   -0.28350472994704
H         4.17285552400430   15.45153598747926    0.27707879601227
C         0.36711826373670   12.39279179732019    1.48317761766128
C         0.79947864827405   12.33535202698160    0.17444184494714
C         0.60594296568820   11.13065062501765   -0.55963863387022
C         1.18046276402636   10.92688086140364   -1.83247881475578
H         1.78486827308230   11.70838315814471   -2.26690271269235
C         0.99821476665992    9.75067746696198   -2.50555062352289
H         1.45110398620138    9.60822716692076   -3.47556643915095
C         0.23183986767318    8.71910550897440   -1.94450954510108
H         0.09209813029391    7.79978020508101   -2.49362022542221
C        -0.31845576259128    8.87641016751376   -0.70359259550151
H        -0.89408910837121    8.08163606192170   -0.25123617994335
C        -0.13611438751042   10.07036307292130    0.02321337072213
C        -0.65744076039064   10.22750689444423    1.32433283086670
H        -1.24425550653255    9.42897811820429    1.75320811038283
C        -0.39186619372547   11.35303018691429    2.04528518823214
H        -0.74113392492393   11.46983124473478    3.05909344664759
C        -1.89098686027411   16.31911159966191    4.21113710927000
C        -2.37088085954234   17.04166840088638    5.29632922220838
H        -1.69734124390651   17.68544332453962    5.83708682370857
C        -3.68976847363999   16.92997141331937    5.70019861889212
H        -4.03233184746208   17.47558724619467    6.56630768676290
C        -4.55865521645147   16.11587530128274    4.99624678273363
H        -5.58554181051416   16.01072230695997    5.31237893386959
C        -4.10533410001209   15.44818781617262    3.87666303906826
H        -4.78720661626343   14.83417482051217    3.30538772898087
C        -2.77864418277903   15.54240064554614    3.45285366388317
C        -2.40765978586226   14.84271736527459    2.23501385499785
H        -3.06299140270310   14.01959409102671    1.97484740032401
C        -1.45413600910359   15.17837350209037    1.35935899408121
H        -1.38933152665134   14.61105241290396    0.43844004735952
C        -0.50001978389222   16.26821134950055    1.44845547932339
C         0.04334365836956   16.76788667727661    0.26378694250460
H        -0.29286743528178   16.35119869631076   -0.67458504924606
C         0.99274546107967   17.77068829490149    0.26496185486522
H         1.39716059739528   18.12881429122015   -0.66929069526451
C         1.41992564125909   18.31138898072905    1.46470758910664
H         2.16279530592132   19.09461585822495    1.48142361001178
C         0.88733270370672   17.83903731437349    2.65538853188187
H         1.14735711309883   18.30315217601223    3.60131557900909
C        -0.06351712222419   16.82279923398796    2.65990735951827
C         3.08141174307132   13.22966112353527    5.05032484409513
C         4.07662608437082   14.20821903670086    4.92896780648376
H         4.57149644487595   14.31855935141889    3.96188043769808
C         4.58859687955359   14.84361899371994    6.05886861631963
H         5.37289075501653   15.57964184811044    5.95535508824504
C         4.10578792120346   14.50355512228602    7.31096043180762
H         4.49138859736871   14.99022945654263    8.19326391541333
C         3.13010774220198   13.53385907237155    7.42947715809070
H         2.76034763775381   13.26793993097432    8.40903577816630
C         2.58580321240832   12.88984946370175    6.31553354869637
C         1.48129431148841   11.97393654633882    6.53306990479740
H         0.99569069487486   12.10170241607223    7.49306429837019
C         1.01523937662286   11.01403260834486    5.72708397774051
H         0.18076048239978   10.42280043152157    6.08620107894300
C         1.57446291859558   10.55060993054705    4.46902780222088
C         1.32107690146788    9.22834901691698    4.09986418267259
H         0.69019434089558    8.62675440359209    4.73908449529549
C         1.85211578446647    8.67869525899913    2.94990520712088
H         1.62610132449080    7.65766135108006    2.68186074215486
C         2.68624009686341    9.44327349696474    2.15512630289459
H         3.12603544003377    9.02622897721537    1.26184587724677
C         2.95231682602331   10.75634627651723    2.50216706285130
H         3.60977333037750   11.34764942272127    1.88718479956196
C         2.37136535803955   11.33652810532919    3.62359986391893
C         3.54835510282973   17.31693616359751    4.23782710981407

