34
CSD_code = QIBREA | q = 0 | S = 0 | Stoichiometry = C18H12CrO3 | MND = 9
Cr        6.45240932253089    3.64623415395135    8.64172892806688
C         8.50845587788321    3.92191424696198    4.80430987043210
H         9.43021179117110    3.45650830354206    5.10614308196997
C         7.61703317167674    4.55768131002471    5.60269871816403
C         7.66567098330951    4.71240647851286    7.04029699739236
C         8.55174045325650    3.92981899233573    7.83454433866708
H         9.22867362889293    3.24161897612855    7.34438873285092
C         8.62234785580512    4.09710280956384    9.21176476865923
H         9.35010974300319    3.54076722423525    9.79040965161097
C         7.79372544239037    5.04129359223758    9.85468288724249
H         7.89946876912941    5.21327221653298   10.91909735566851
C         6.93431385859102    5.83433699217451    9.09609472650724
H         6.36059404457940    6.62331557727543    9.56815839348689
C         6.84632421601820    5.64854555644628    7.70555331805717
H         6.21610286380372    6.31543812026956    7.12988272089966
C         6.46866256542231    5.07870991091015    4.77273328600878
H         6.37780212913788    6.16655908106196    4.82408083746788
H         5.51971675320028    4.64690433227074    5.10161511157524
C         6.83304451641200    4.63891177519764    3.38931187452471
C         6.17290891905375    4.81791833828367    2.19385595090408
H         5.22814027933171    5.34053962946551    2.15219553805147
C         6.74736029187597    4.30671864523752    1.03722450264730
H         6.24344520974809    4.43488636480289    0.09064128745609
C         7.96012763397261    3.63261220820822    1.08029870851740
H         8.38410436689044    3.24521255715866    0.16543246881975
C         8.63090183558727    3.45000850163270    2.27706148673438
H         9.57376953188068    2.92422533939990    2.30906767947990
C         8.06030620869037    3.95702758989740    3.43632077428863
C         5.99415475993403    2.57919151522072   10.04915985753326
O         5.64228132077166    1.87966688375571   10.89730308145562
C         4.64044077371306    3.76215213994574    8.50349662129751
O         3.48815094173095    3.76033356383377    8.41393157118880
C         6.14148145516413    2.12887065916482    7.67990271945004
O         5.88051848544058    1.17079641435989    7.09141215292191

