44
CSD_code = QIBRUQ | q = 0 | S = 0 | Stoichiometry = C23H17O3Re | MND = 8
Re        0.23040948637814    4.29340635665325    3.96762530154749
C         2.46159125389533    4.70541515280974    3.22284510411344
C         1.62093945906714    5.75225712453469    2.73607993099731
C         1.52175942930442    6.18625642493923    1.30707628180441
H         2.34515543560818    6.86951600022110    1.08686159913565
H         0.58422115123650    6.70738565614379    1.11913909551395
H         1.59816574007737    5.33875173180890    0.62918373808940
C         1.03730018253706    6.43277874035163    3.84765269819216
H         0.52330287576321    7.38164193399134    3.77407116466067
C         1.67516365746135    5.94509379623870    5.04798940633169
C         1.65775210653085    6.38842911581297    6.38197942378031
H         1.02669584933954    7.21870140189908    6.66825122014930
C         2.46904773660049    5.76244361178906    7.29442868308826
H         2.47882925492394    6.10046946559045    8.32003684166213
C         3.30285496888127    4.69369921877155    6.92449541808610
H         3.92888329589906    4.23667222249424    7.67633869520533
C         3.34934398788333    4.23352605418693    5.63275261439283
H         4.00691483561375    3.42439631572154    5.34685566697444
C         2.53985809672646    4.85667505242632    4.66673929259407
C         4.58267979230123    2.54812628232700    0.94318192827427
H         4.72992263992412    1.48026614273593    1.12399631758122
H         4.65261690312659    2.70460611511462   -0.13634862804801
C         3.25988203096267    3.01538594294270    1.48707117794855
C         1.99030666835827    2.42214782110412    0.99060631389727
H         1.14667565248944    2.67924542303059    1.63433866054846
H         2.07439689544495    1.33688339809142    0.94498405228900
H         1.76901143665620    2.77614106281614   -0.01786408482734
C         3.44514950820130    3.96545798095453    2.42752507367904
C         4.87715024226913    4.22387044407605    2.57526666543484
C         5.56243263747477    5.12895538360004    3.36987079076702
H         5.03931651103219    5.79566125654779    4.04074517098528
C         6.94484690673200    5.16473985968136    3.28649765464982
H         7.49672182558488    5.86161407340760    3.90064270268822
C         7.63002814382273    4.32209647333298    2.42459372965531
H         8.70811195600743    4.36845817050207    2.37825145714438
C         6.94541790521023    3.42516650422715    1.61532199920244
H         7.48212602643478    2.77695124927349    0.93748090473253
C         5.57068488067592    3.38328753071720    1.69338982949096
C        -1.02814868810742    4.00633043188393    2.51870809078837
O        -1.72419765862492    3.89236692689269    1.61104062080117
C        -1.20121047900329    4.54274717881105    5.26467133769653
O        -1.98852344658728    4.75119829241427    6.06725142837127
C         0.43456977630707    2.38972830675374    4.33214180959534
O         0.64084312957708    1.28835237237692    4.56453282033763

