46
CSD_code = QIBSAX | q = 0 | S = 0 | Stoichiometry = C26H16CrO3 | MND = 9
Cr        0.02556523376600    3.83026883340059    2.23253758399202
C         2.86320662123255    2.60531230630060    3.62118565847164
C         2.43113691743635    2.14166223837541    4.80542052077991
H         2.82029139791942    1.28906027928185    5.33093270292063
C         1.27805604697972    2.94901190748078    5.32716811700734
H         0.39209337374194    2.32393041887888    5.47222340983290
H         1.50759208359524    3.41346285023540    6.29152738570940
C         1.08001011973143    3.97172344288332    4.24648993876303
C         0.21198831060243    5.06175493703971    4.17907782683710
H        -0.48578115697501    5.27630486169071    4.97973977876886
C         0.30858459907780    5.91592713705419    3.06555631112365
H        -0.31709349305719    6.80031192330112    3.02360485950910
C         1.29132777985427    5.72618907916404    2.07971451422288
H         1.40297848396144    6.45563748792136    1.28685920689959
C         2.15170683440216    4.62052599191291    2.14042669075719
H         2.94674906425912    4.49540224617163    1.41355210019026
C         2.06192969232834    3.76164880401868    3.24522650983685
C         3.92343274776088    2.07416340098861    2.74743750266064
C         3.59656950879573    1.08614055270252    1.80826500254293
C         2.28468462195630    0.55818017161196    1.69009704080926
H         1.50994758778603    0.92423622976155    2.34868279671660
C         1.99431338476291   -0.38946473255349    0.75723148118647
H         0.98909692721980   -0.77236976658886    0.67252751852306
C         2.99631668735119   -0.87456249435241   -0.10866436811107
H         2.74190439456640   -1.62705963242311   -0.84020625608213
C         4.26762502178813   -0.39689130814363   -0.02367905664199
H         5.04222262144470   -0.76140991857357   -0.68343069494261
C         4.61151701947765    0.59756935936606    0.92750110707418
C         5.90118128950601    1.11382060745555    1.01512964877106
H         6.66542526053374    0.74245624895631    0.34642683918413
C         6.22802459588786    2.10445546479356    1.93582052974874
C         7.53547774826477    2.64818388859984    2.02094321031970
H         8.29215557467773    2.26574053672771    1.35077661815771
C         7.83148312535341    3.62646598647758    2.91901583479160
H         8.82919755062114    4.03632900455377    2.97588486543812
C         6.83564566454096    4.11808368047855    3.78903822858736
H         7.09054117898723    4.89537072984889    4.49480201422178
C         5.57015108153677    3.61959162041058    3.74208833350961
H         4.80909666711501    3.99398366352961    4.41231546810081
C         5.21920532544104    2.60002736845216    2.81928022836240
C         0.20414256156255    2.93149564435524    0.65826299941189
O         0.24353674222626    2.33458881330773   -0.32990102843392
C        -0.82885191201335    2.29097361995245    2.68721084453896
O        -1.39426942365413    1.30691104302401    2.91555317151497
C        -1.61151160289503    4.19927919811883    1.52298268885523
O        -2.65250385945216    4.35617627405159    1.04646431556128

