45
CSD_code = QIBSIF | q = 0 | S = 0 | Stoichiometry = C26H15O3Re | MND = 8
Re        1.78188341004895    2.82426484644238    1.41466290619776
C         3.46190833673757    3.97839944274939    2.83632436903933
C         3.06900170943610    4.72359510647501    1.67990573186361
H         2.66191200370664    5.72683669388145    1.71151515202912
C         3.47464170863251    4.03581383742172    0.50419917700181
H         3.49399202763057    4.45745835789826   -0.49224545952645
C         4.21776171226108    2.87298494159721    0.92233377842044
C         5.00180693495884    1.94505221418738    0.20813054979771
H         5.02482436852097    1.97660567687398   -0.87258131622642
C         5.73724356161923    1.02632112083470    0.90915351415481
H         6.35047440276002    0.31455873986791    0.37691628550280
C         5.72931501931118    0.99602752906650    2.31600973337811
H         6.33590953944140    0.26078800187745    2.82323069783253
C         4.98692781735125    1.88492572912036    3.04916378440610
H         4.99721364998699    1.87122812868200    4.12996503003560
C         4.21956318415566    2.84468555696194    2.36817269504833
C         3.44119254538942    4.50244680535723    4.21223154384034
C         2.81917424491735    3.80807798333543    5.26859137457049
C         2.22666200354115    2.52805806004414    5.11732663169143
H         2.25700291991412    2.03151649404284    4.15747549854195
C         1.62324296915415    1.89188004451546    6.15917625512341
H         1.18329800674919    0.91698768257854    6.01145273571689
C         1.56498943060654    2.49283465807949    7.43179006441466
H         1.08063673288014    1.97170809367590    8.24404153750989
C         2.11366027695348    3.72244288986715    7.62317178339268
H         2.07667552855837    4.20140652335959    8.59125593584255
C         2.75354797847801    4.41434144456179    6.56319943702703
C         3.30763609555877    5.67345261668242    6.76438692525986
H         3.23007428811400    6.13589563490496    7.73855750225417
C         3.97466099541219    6.34350753368020    5.74550132040960
C         4.57475649722172    7.60916604880505    5.96907851891734
H         4.47458103384184    8.05218551310670    6.94966802396233
C         5.26814518370069    8.24232247486578    4.98541530486573
H         5.72453214781710    9.20496238040111    5.16231780911843
C         5.41743387203086    7.62663104893458    3.72702079403990
H         6.00617540849247    8.11747021411749    2.96564142216499
C         4.83861119115688    6.42098068378006    3.46990591697053
H         4.99552453124330    5.95836107257268    2.50659969175705
C         4.06691816553140    5.74395787754124    4.45080433853575
C         0.21721213721569    3.35555296231325    2.44261497954406
O        -0.66196742262314    3.75768439792477    3.05671291581779
C         1.52525113147111    0.95517880361101    1.89910154339734
O         1.49763509180739   -0.15435827431275    2.18732101338050
C         0.84776519867978    2.57652132017396   -0.27201400153908
O         0.33029242962732    2.48918108754086   -1.28850344548384

