38
CSD_code = QIBTUR | q = 0 | S = 0 | Stoichiometry = C11H18N2O2S4Zn | MND = 4
Zn       -3.06673050062587    4.33448474308564   11.67816527653580
S        -5.33292972580931    4.34715505296520   10.50906548645099
S        -2.81788638006923    5.53225243992522    9.51497728822918
S        -1.09990873699928    4.83746002394878   13.15191431254663
S        -3.67435528881512    3.71899872325666   14.06618885968784
O        -4.97570095963989    5.49207091917017    8.16906447978166
O        -1.68063593349676    4.07253914323556   15.60109290236576
N        -2.65978987117970    2.34751915547741   11.15285424453936
N        -3.51246700181125    1.39444975584709   11.55619110237192
C        -4.44719468167365    5.13949698351242    9.31694903278632
C        -6.35285696209970    5.21631073595214    7.92279974585701
C        -6.70050629340492    5.75690840383966    6.54910234055925
C        -2.09230251802135    4.21136760385896   14.36410724656947
C        -0.35807246987493    4.47806518055520   15.94699634828798
C        -0.16569169694208    4.22996850947873   17.43100631607243
C        -3.16249078493464    0.18619439992708   11.08630244502398
C        -2.02008553468960    0.38078957595184   10.33385167646688
C        -1.73965933769445    1.75145556976663   10.40280444969627
C        -3.93720076747828   -1.03993466881369   11.39435132320845
C        -0.63351600503415    2.51344176617370    9.77603587437972
H        -4.28645535188324    1.63488587453626   12.15973128678393
H        -6.51351352528238    4.13301727718762    7.98153056747591
H        -6.95617340353683    5.69130469473857    8.70561353413259
H        -6.52416552624053    6.82830669629690    6.51494904091024
H        -7.74664087995801    5.55959879988272    6.33505941657238
H        -6.08370426766742    5.27929730350734    5.79296237290181
H         0.35722560050347    3.90347932442050   15.34643630784536
H        -0.23513642125411    5.53875973324507   15.69814779681876
H         0.83548492914412    4.53232823254398   17.72289372700498
H        -0.30065826150398    3.17520357439593   17.65395554888499
H        -0.89258391266861    4.80134343455685   18.00148872031613
H        -1.45980090490690   -0.36263052234926    9.80566680769146
H        -3.93462440909759   -1.23140126997078   12.46676752182367
H        -3.50178186401260   -1.89378953985691   10.88416579417027
H        -4.97198187786787   -0.92656994170534   11.07451020420221
H         0.15447004037657    1.84075168325652    9.45039204132659
H        -1.00302420901540    3.06866556185648    8.91444474476831
H        -0.23015430480146    3.23625506631015   10.48266381497112

