89
CSD_code = QIBVUU | q = 0 | S = 0 | Stoichiometry = C42H44HfN2 | MND = 5
Hf        5.25332828126372    6.18953803536881    3.98963689628338
N         3.96700415277745    6.36591315693787    5.67770636878465
N         4.92394137665978    8.53453454995577    4.33759656189799
C         3.61310534485777    7.59399186330860    6.10762203250695
C         2.78358270095509    7.83263048954280    7.21147271486278
H         2.40271353233741    6.98549661612933    7.76265163779558
C         2.43541417618377    9.11692444932499    7.60077924314628
H         1.78721783852616    9.24348634280463    8.45615722604002
C         2.89494337372099   10.22304666939294    6.92393205511275
H         2.62178432931066   11.22045472463561    7.23125017157284
C         3.73629677030497   10.05286175384787    5.81549945546496
C         4.10674298039652    8.74142143360917    5.39515495099979
C         4.25375393123101   11.13737291900277    5.07540639764847
H         3.98781119740017   12.14353996881525    5.36655696046547
C         5.07668343478525   10.90060735940689    4.00819846774981
H         5.48810963749962   11.70745753800326    3.42241109824120
C         5.38556506965944    9.57740722102906    3.67231109440976
H         6.03379128610996    9.37114955565841    2.83092782631987
C         3.62053734452134    5.25841472251540    6.48798106718947
C         2.52367296546211    4.45490192268236    6.13895877980148
C         2.18673388287995    3.38592764113450    6.95570654592966
H         1.33577641215401    2.77073543136659    6.71027244340862
C         2.92195201251303    3.09854269908737    8.09072303460224
H         2.64255672677848    2.26653103201901    8.71986169018506
C         4.01630031723616    3.87612899743630    8.41579419923002
H         4.58984473158144    3.64067364173082    9.29962194300239
C         4.38150212961781    4.95921317966562    7.62947458664974
C         4.85410133783668    6.62895534508196    1.83374158958497
H         5.17360239637074    7.65141177998504    1.60515167439816
H         5.32977250272113    5.94744798408996    1.12231844927480
C         3.38991468580070    6.51376764494664    1.77207829875113
C         2.55362356567771    7.54495410378401    2.23645520273306
H         2.99497162665341    8.45888274496044    2.61619712026417
C         1.17863911490703    7.43914497338286    2.17341474116153
H         0.56443816016459    8.25192856841013    2.53542957964331
C         0.58224862013571    6.30978075834318    1.63418243290975
H        -0.49331329357876    6.23622820007661    1.57066858730522
C         1.38546480097792    5.28485252849601    1.15901200064402
H         0.93407068449436    4.40971651715424    0.71177870777032
C         2.76073902236807    5.38133305228264    1.23061831499414
H         3.36895379496234    4.57985045948467    0.83245988209431
C         5.09689823404400    3.95466895817598    3.86809827191611
H         4.96658278891007    3.54102756494268    4.87561429331848
H         4.22241071176554    3.70034349439611    3.25766096327456
C         6.32622893108910    3.43614279558317    3.25477424739651
C         7.42364200759216    3.04951465473595    4.03759056818080
H         7.33374256983005    3.07564294511980    5.11673799824400
C         8.60053495965586    2.61232145079633    3.46295900720625
H         9.43031513925298    2.32520413366722    4.09331373636457
C         8.72031175467086    2.52979297849795    2.08486927798898
H         9.64086470383389    2.18911435266767    1.63583922024032
C         7.63598418884611    2.86933565608483    1.29138613204133
H         7.70877817316668    2.78382357165181    0.21625362797313
C         6.45921137675342    3.30932871453509    1.86471444868005
H         5.61534757181493    3.54643699321267    1.23084731095972
C         7.34294152778576    6.49370436924801    4.74204854494279
H         7.46205566065161    7.03461008248449    5.68693617648404
H         7.80210755419513    5.50226629719582    4.82383699016005
C         7.93498906509716    7.24598458415675    3.63060027811573
C         8.31995939833532    8.58800888330515    3.75385637268767
H         8.21138810511633    9.08323066330698    4.71052627648495
C         8.84286430601614    9.28586442222862    2.68106299349135
H         9.13335281602955   10.31978398147973    2.80612832376771
C         9.00670312787295    8.66601902886826    1.45325797083231
H         9.41835751778238    9.21137860222220    0.61739412607964
C         8.65404654890852    7.33089635936007    1.31494123203561
H         8.79713451722423    6.83316369542700    0.36655847612645
C         8.12771458229828    6.62980092266041    2.38089783298591
H         7.89302126207817    5.57647381921330    2.27158375959587
C         1.71260742262475    4.78357271008953    4.90695172895863
H         2.36030313380755    5.34261435412381    4.21087867409827
C         0.53375117712483    5.68567407815468    5.28553684729067
H        -0.05872237371269    5.91213582723563    4.40271168958259
H         0.88769614775201    6.62120860793556    5.71213666580887
H        -0.10116245687630    5.18909882777173    6.01708890010454
C         1.20521468739307    3.53266853363610    4.18937937569087
H         2.00557437107516    2.80707987065454    4.06483798445896
H         0.82868168098466    3.80630388021745    3.20744635585832
H         0.39406439849188    3.06449030896787    4.74163160935211
C         5.59125664209663    5.78725617102477    7.99826281900066
H         5.73821291444756    6.54977746455579    7.22325177975315
C         5.38258803293169    6.50359618691888    9.33428606720912
H         4.51711966717142    7.16027264171033    9.28051639419194
H         6.25598442287629    7.10520366597600    9.57752623502396
H         5.22414807733197    5.78817916574103   10.13772899221565
C         6.84675348756254    4.91277075095655    8.04005603452786
H         6.78633854508613    4.17864105741241    8.83952411873610
H         7.72822443608164    5.52762417583340    8.20846672236657
H         6.96688352889146    4.38678917094331    7.09512051738182

