73
CSD_code = QIBWUV | q = 1 | S = 0 | Stoichiometry = C30H39ClIrN2(1+) | MND = 8
Ir       10.08491148125755    0.88254893155887    1.24065077501189
Cl        8.73491982248205    2.78585322818195    1.03368163217038
N         8.40104927341592   -0.18978995918407    0.99104967306655
N         9.98194524220577    0.69462592180782   -0.75820840033177
C        11.90846466945242   -0.10971251858151    2.18391776865734
C        10.94603959136033    0.12123173849624    3.22964085806942
C        10.70333875555685    1.51685993049763    3.29577273466604
C        11.58169767010695    2.17235380929398    2.33946239020088
C        12.32600043904791    1.17032055472914    1.67069307496480
C        12.62905126167826   -1.39169122997659    1.93686475610925
H        13.48949835059036   -1.44369182483029    2.60643045641711
H        13.00085795970513   -1.45086911933962    0.91694484910168
H        12.00186719016435   -2.25641919699222    2.13821022023383
C        10.42118964212028   -0.89997926560285    4.17963359646324
H        11.03969849125872   -0.89867260501075    5.07817192126316
H        10.44766401580699   -1.89827783617680    3.75283637491286
H         9.39804037285385   -0.67928055990910    4.47523271750354
C         9.91206592311864    2.23296904310254    4.33654261064554
H         9.15975416790714    1.58390053457283    4.77727453574929
H         9.42263615556048    3.10904336755038    3.91635303608155
H        10.58002979890804    2.57128063210542    5.12996459464676
C        11.79340007674585    3.64490857015224    2.27811657766632
H        12.26892744061483    3.97591345859511    3.20214662032677
H        10.84492617148477    4.17237613665145    2.18760568283680
H        12.43157881181960    3.92215501897858    1.44374254685198
C        13.45937696616872    1.38536245934998    0.72588587123333
H        13.35995681062595    2.32749737637573    0.19340740947399
H        13.52409026929712    0.58611434978283   -0.00869377988087
H        14.39463071905571    1.40662581724465    1.28672352703839
C         8.04656692676394   -2.22368544252597    2.21713207391281
C         7.43070344703439   -2.92281208929072    3.24116844613800
H         7.67463083192521   -3.96534413467638    3.38074273784036
C         6.50509404075269   -2.31852749603517    4.08035876578019
C         6.18606818716235   -0.98550633222301    3.85453570250756
H         5.45027662190972   -0.50851997081034    4.48469962036422
C         6.76913390016028   -0.24668291766248    2.83721463208371
C         7.72726466294410   -0.86994914944888    2.02549972075168
C         9.00338318762124   -2.91544331019351    1.29437185358678
H         9.33238481786222   -3.85879423099972    1.72145772253675
H         9.87191516360544   -2.29057605118248    1.09194602763875
H         8.51957930176205   -3.12937698666528    0.34109793010180
C         5.85889213495582   -3.07288765506416    5.19597664495746
H         6.09327882041712   -4.13209708938186    5.14144579610222
H         4.77841903700329   -2.94902893810744    5.16368055644109
H         6.20459716995788   -2.69143871293305    6.15634348287597
C         6.36733635113189    1.17506372649953    2.62124145175738
H         6.18344143399080    1.37811771823077    1.56826597994776
H         7.15579841407614    1.85068349685927    2.94768040244892
H         5.46637579768086    1.40335269959437    3.18342322122158
C         7.92604673651665   -0.17469325664552   -0.22571827774338
H         6.94885691570652   -0.57717431365038   -0.46201618191294
C         8.81524643537146    0.31711170652642   -1.20862277274878
H         8.58199228527557    0.32126754428725   -2.26609155944295
C        11.05026471952841    0.94960203678446   -1.64165400664309
C        11.38618926091633    2.24472609121421   -2.05801931706428
C        12.47600187631159    2.40737309782742   -2.89814825020224
H        12.73557022847205    3.40339477778062   -3.22453778925177
C        13.23520654457518    1.33246887201773   -3.34203348091893
C        12.87027924433073    0.05763201784466   -2.93231318566384
H        13.43480124034990   -0.79493594556596   -3.27960020902845
C        11.78901118220784   -0.15537219347740   -2.09340849078271
C        10.58403456088635    3.42848630283890   -1.62740834310232
H        10.70290118287190    3.60699623138374   -0.56054005172212
H         9.52320733758993    3.26954809779159   -1.81118572585701
H        10.90030551593756    4.31827079183403   -2.16381406155808
C        14.41239400876545    1.55283716124848   -4.23486946523720
H        15.22831037391742    2.00622489306198   -3.67233850267162
H        14.15534023610592    2.23095313156722   -5.04561444924190
H        14.76571451930824    0.61642111956435   -4.65705179614743
C        11.39655870268277   -1.54916183889700   -1.70532457435010
H        11.10311730581616   -1.59989297654657   -0.65835945357699
H        12.21859535863649   -2.23831363700034   -1.87853149813355
H        10.54930643882919   -1.88307360919160   -2.30443595714185

