83
CSD_code = QIBWIJ | q = 0 | S = 0 | Stoichiometry = C40H40HfN2 | MND = 5
Hf        4.38159241382399    3.85732014175775    8.67983869461764
N         2.43313167866070    4.44673419619921    8.06960716875695
N         4.67256313474917    4.69312996278497    6.53540998849181
C         2.28650298959214    4.64117148421646    6.73824458192135
C         1.04540185409617    4.75233443928590    6.10234583141981
H         0.14833282795286    4.66854261213018    6.69858095752999
C         0.94715729646153    4.97408628596275    4.73755738318283
H        -0.03423529368635    5.04413759998315    4.29042053397225
C         2.06557210436543    5.10817889356203    3.94956698975300
H         1.96312868723413    5.27911942281280    2.89114630862441
C         3.34286127972466    5.02921730865699    4.52947000900979
C         3.46464006613669    4.79084890099822    5.92481056855936
C         4.54528455624625    5.16846447667759    3.78192176599875
C         5.73985611410393    5.07544242684095    4.44615827555220
H         6.67231908539951    5.17751044322309    3.91203972329430
C         5.77698882781489    4.83059635162739    5.82676297473089
C         1.28457321960876    4.17634799806717    8.84886389436282
C         0.66297552968989    2.91881875531628    8.79325088737206
C        -0.43889886322119    2.66496653970988    9.59517050624621
H        -0.91312289463901    1.69503535738711    9.54880309351941
C        -0.93426046880900    3.63377426953347   10.44809884813246
H        -1.79370631432071    3.42454065626014   11.06684751718741
C        -0.32106885541298    4.87178902928999   10.50435905426313
H        -0.70688324406498    5.63234468822692   11.16794918306676
C         0.78124539003606    5.15892180296541    9.71414435274170
C         5.24947914462506    1.87356001819499    7.98596488474236
H         6.17336105461939    1.62474425277837    8.52799617124542
H         4.48697972548177    1.13416244322915    8.27247336663469
C         5.47869547350412    1.78789222280381    6.53382933051184
C         6.76701374250347    1.69757722070026    5.99320548020238
H         7.61473029070688    1.64834169556818    6.66466792874146
C         6.97666606600229    1.66447364953108    4.62834865562825
H         7.98495453647587    1.59551299961028    4.24306963967732
C         5.90544869112981    1.70834158166151    3.75223580577692
H         6.06910731051531    1.68723362904283    2.68515998289502
C         4.61848463636881    1.76068172329177    4.26449398075354
H         3.77045292540462    1.77738419566125    3.59385933758191
C         4.40804572470959    1.79032241062958    5.62723639759412
H         3.39204756892366    1.82047871046083    6.00067484624263
C         3.61213559778223    3.01291215103114   10.62723537628482
H         3.06340882508345    3.79344125670628   11.16787458950261
H         2.93815167306147    2.16761414767356   10.44760447354350
C         4.79522922447870    2.58206011524080   11.38465780237022
C         5.46911632961948    3.45456671732250   12.25138062978425
H         5.07255724825103    4.44798847644237   12.41409928153947
C         6.60867871580939    3.06230352180820   12.92493344350098
H         7.10516698914697    3.75785252654586   13.58718624668598
C         7.11187574036862    1.78056904416450   12.76934691631344
H         8.00266909374678    1.47439661589136   13.29725892968404
C         6.44093718525318    0.88871722178278   11.94808228845262
H         6.80591432904254   -0.12343041614558   11.84181568546630
C         5.30097826946997    1.27865304619031   11.27397873774751
H         4.77378252519980    0.55672041400479   10.66439470597030
C         5.76121990276419    6.67997647596120    8.74193513303160
C         4.73286018511867    7.26271516727550    7.98751125535525
H         3.72074278093562    6.89330210958234    8.10394317017269
C         4.98765604483353    8.28550400791912    7.09742343618715
H         4.17710336496158    8.70800730506664    6.51998552562917
C         6.27581897354995    8.77479738646270    6.93838237966515
H         6.47362588075803    9.57687300569053    6.24307888221735
C         7.30286628237641    8.23069610814119    7.69074172372865
H         8.30860298628289    8.61473294433323    7.58840573370929
C         7.05011175731329    7.20094674595096    8.57861231889363
H         7.86322656492457    6.78814269418168    9.16168583994824
C         1.19956320511355    1.85798012666184    7.87993621394900
H         0.77857183781360    0.88682016252576    8.13097491509613
H         2.29020251658665    1.81152292340908    7.96364531236617
H         0.94715367872664    2.08408875810333    6.84220217522670
C         1.42849677746036    6.50944974082730    9.77287964842168
H         2.47130806360813    6.41560065534210   10.07994547113104
H         0.91086485923746    7.15279036896118   10.48018254393935
H         1.40581523888833    6.98281998247420    8.79141506345698
C         4.50787476433279    5.40322490011170    2.30727947900552
H         5.51555623310115    5.48766486165176    1.90903793525061
H         3.96286795377890    6.31821668933552    2.07970537156766
H         4.00341381538150    4.57744922102592    1.80770096874594
C         7.09557581999190    4.73930005704520    6.52523401768621
H         7.50908999879983    5.74040652848749    6.64746154665078
H         7.79295687607564    4.15490276540181    5.92996388224341
H         6.98260261833453    4.28370537285556    7.51337295416405
C         5.47414590491280    5.56965339420934    9.66799297378012
H         4.72497791420686    5.90493409229350   10.40189912636119
H         6.38250744481728    5.29172981657996   10.22063099172130

