39
CSD_code = QIBXEF | q = 0 | S = 0 | Stoichiometry = C12H19BrN6Zn | MND = 5
Zn       -0.86636049825672    2.30485191979265    8.73335030138896
Br       -0.41418962267229    3.07311731227184   10.87715192107521
N        -1.49833735083169    0.26973799927896    9.48558996893628
N        -3.00217002710996    2.27156632971504    8.60087247497503
N        -1.40362984461933    4.37479713059861    7.74233756638380
N         0.28547693581749    1.64179344448899    7.44818862612818
N         0.16952539668392    1.11520673579840    6.40788771806551
N         0.12935707846563    0.60859919252335    5.39778997174077
C        -2.81229072275277    0.21619906324176    9.71826412504447
C        -3.40027519344301   -0.84563188084145   10.40129153773459
H        -4.46468167554004   -0.85413347365244   10.57928191309029
C        -2.58968392302957   -1.87772194300520   10.84490367700844
H        -3.01337743591906   -2.71442028236267   11.37962716833460
C        -1.22843076773752   -1.81394711255346   10.59294328115882
H        -0.56300173711144   -2.59542016402350   10.92231101940230
C        -0.72877205522676   -0.71302399155747    9.90792604736712
H         0.32603853791809   -0.61247559800403    9.69284329421523
C        -3.58765374146558    1.34566134739076    9.23057949537888
H        -4.66123102934822    1.35540085390002    9.43756281172540
C        -3.67057497735337    3.42819775072784    8.10642855479204
H        -4.62573953512642    3.61053946572720    8.61758627277640
H        -3.87818892547573    3.26399297310472    7.04317213740923
C        -2.74150599312048    4.63476442753488    8.27320578080375
H        -3.20699979531572    5.51623334551416    7.81243557763758
H        -2.63666959124258    4.83333163824955    9.34381929258128
C        -0.49939863785556    5.44539585646698    8.19201809257894
H        -0.84133538953924    6.42101642153550    7.81820599214363
H        -0.55455042420092    5.47552189071970    9.28291304286349
C         0.95294687900349    5.21757897282493    7.79871213711795
H         1.25207562025934    4.19825324071223    8.03643430989069
H         1.58262768571037    5.89844059469262    8.36564217066732
H         1.12506058746909    5.39583248431102    6.74043032705836
C        -1.38879866653911    4.20662203005875    6.28224075383050
H        -1.99688732296017    3.33357554345112    6.03603982360463
H        -0.36544519943377    3.95997089705464    6.00018704193357
C        -1.86131791675756    5.39530550443867    5.44478608209779
H        -2.90461882806945    5.63920278314567    5.63352188205505
H        -1.76379986136032    5.13541565900715    4.39391208959427
H        -1.25649203191048    6.27905163770274    5.62940571941842

