34
CSD_code = QIBXIJ | q = 0 | S = 0 | Stoichiometry = C11H17Br2N3Zn | MND = 5
Zn       -1.42807722460632   -2.49033542842516    8.30341125898557
Br       -1.69850291425898   -0.65217661670534    6.84010248159682
Br       -2.37829965223080   -3.91719049875148    9.99000673962605
N        -0.26260976614119   -1.36698192399453    9.90748114122604
N         0.58096249548633   -3.23489097233208    8.20407283982229
N        -1.48765178262890   -4.15445607536528    6.62303440828853
C         0.92798701572285   -1.93322131946806   10.12724300622232
C         1.72521781974022   -1.57939923502339   11.21243419733259
H         2.67877081754800   -2.06145529462986   11.36360199429225
C         1.26654338259189   -0.60609036598973   12.08498892548573
H         1.86005046097257   -0.31190972419170   12.93738840747182
C         0.03490774490268   -0.01984967878417   11.84271108052247
H        -0.35936063654524    0.74273337866305   12.49456048532720
C        -0.69467961538586   -0.43771332229036   10.73693842372815
H        -1.66173448216873   -0.00855933902885   10.51098901696519
C         1.34125360385981   -2.94909470664941    9.17114136366025
H         2.30796107471780   -3.43439056691156    9.32917556420216
C         0.88579873108577   -4.22157705894537    7.22342872874805
H         1.71658246204869   -4.87340552349691    7.52436527227668
H         1.16748594865986   -3.68714681342846    6.30763697011090
C        -0.37704474140389   -5.04411770312125    6.94290507994270
H        -0.15110257469093   -5.75618387786095    6.13863702118847
H        -0.64786019976880   -5.60690634452043    7.84151410831113
C        -2.77596171004071   -4.84200186039496    6.43808594509458
H        -2.96146551316063   -5.42492401712319    7.34738702453132
C        -2.77425296079815   -5.77806391612627    5.22785311385576
H        -2.52405297494783   -5.22675832758254    4.32232200505882
H        -3.76213387410694   -6.21146883718461    5.10087949391508
H        -2.06651540503638   -6.59438118706626    5.35103269332364
C        -3.87483704053689   -3.79556023217214    6.28489769892064
H        -3.94155464372675   -3.17132875649359    7.17481802350400
H        -4.83648850332424   -4.28166045924065    6.14723945616994
H        -3.68036816225270   -3.15420356532952    5.42734153697443
H        -1.27576717959301   -3.66572983004239    5.75097449331495

