75
CSD_code = QICDUE | q = 1 | S = 0 | Stoichiometry = C35H36FeNP2(1+) | MND = 8
Fe        6.62072418052193    7.17720527814004    1.24941177098840
P         8.46029650379812    6.66181005699699    0.25179828697025
P         6.85152106729868    5.34087032924291    2.38384041531809
C         6.65369070102414    5.79013650310700    6.95138092303766
H         6.58735552825082    5.89830601375867    8.02303365845946
C         9.47159479427071    5.54171340589615   -2.12685291905988
H        10.31495829221971    6.20867631519504   -2.01893889457636
N         7.62747386223324    8.15471774852758    2.36397916414152
C         7.34254802120028    4.72510014818075   -1.35052545817289
H         6.53511147602794    4.77761401119066   -0.63195958494205
C         9.49071865064231    8.06302777049915   -0.24303381009229
C        10.48753959897489    8.60634373077651    0.56062435722310
H        10.75626843950543    8.12974669161329    1.49182328947045
C         5.75832290215136    8.72914812173528    0.07946612179405
H         6.23084628744546    9.59263216185175   -0.35554572091474
C         5.53498969837061    7.48822994355403   -0.56821123697176
H         5.83174125697672    7.23770621088180   -1.57278575750597
C         4.77866166242338    6.67400246690847    0.29534774722506
H         4.35734156418075    5.71104075410614    0.05957073988626
C         8.18021387014898    8.94715525691311    2.99607150886187
C         8.84288138918594    9.89302052944407    3.84732722798198
H         8.76310625824612   10.88465158395670    3.39248258885798
H         9.90338031854873    9.63084993112349    3.90377907914121
C         9.14076529687807    8.70514357044185   -1.43056968574187
H         8.35126359788129    8.28861010408158   -2.04223311914744
C         4.49508096746425    7.42578759562563    1.47178590354447
H         3.83911989129672    7.11728133321805    2.26719854731455
C         8.50027186061380    4.57789774660744    2.00221299328589
H         8.91586913155534    4.08264447149008    2.88381190837211
H         8.36710998193611    3.82810343999246    1.21752476974852
C         9.41508565279804    4.65348554281532   -3.18583982804948
H        10.22021351832669    4.62596841153693   -3.90415084570197
C         5.07955995102338    8.69386500601736    1.32106580528154
H         4.99979736889270    9.51433918274978    2.01413525350264
C         7.23988631566744    4.47304646104974    5.03221191132898
H         7.60369811252173    3.54647644384697    4.60984762444748
C         8.43133202158509    5.57845977012564   -1.20210442178165
C        10.74160123312514    5.08922533163625    0.93198127288242
H        11.30167679724973    4.59127829907217    1.72149267110676
H        11.36766885743289    5.87447826963892    0.51234006567822
H        10.53486705102321    4.36135502862769    0.14933597785189
C         6.31045247714406    6.67414254285872    4.74965565324958
H         5.97105564365235    7.45991129071506    4.08862696545081
C         9.44537718676764    5.66634372060654    1.48698979856189
H         9.65968696087596    6.35882047392331    2.31310022022769
C         5.63598054142207    3.99882779785313    2.18937117784076
C         5.77873226758904    2.92271382073083    1.32005831627253
H         6.67946785508376    2.79023215136434    0.73946685572214
C         3.58895465353980    2.13289630450429    1.91815972386241
H         2.79799930652325    1.40668158009250    1.81299057052571
C         4.76002751575326    1.99354695606831    1.19316899432140
H         4.88382378083301    1.15629145982960    0.52282708729415
C         6.22292034337940    6.81386194724531    6.12345413480942
H         5.81236586937978    7.71700530630539    6.54995030248890
C         7.29396707320931    3.83581221656962   -2.40812948029581
H         6.44742177005829    3.17495735577498   -2.52005919836367
C         7.15614140624871    4.61948886605358    6.40448479273500
H         7.47455102847855    3.81558504158843    7.05072211884560
C         6.83396773165255    5.51048045865445    4.19733900742175
C        11.14869810177345    9.75414496817017    0.15909103833087
H        11.93244026207649   10.16562112903638    0.77754602928421
C         9.80302614517130    9.85067660412714   -1.82664045327240
H         9.53538148901252   10.33735615909075   -2.75219754560904
C         3.43583276599693    3.20799740714047    2.77988473446822
H         2.52541584260226    3.32096942487756    3.34866409956300
C         8.33126333317084    3.80058707958667   -3.32678494585275
H         8.29357473049383    3.11102847476429   -4.15590268290760
C         4.45008573062827    4.13587010750763    2.91126224660353
H         4.33718631651673    4.97176005640683    3.58838645309249
C        10.81099924139911   10.37539477868026   -1.03198345026920
H        11.33083804077198   11.26925053265033   -1.34026481620963
C         8.22524651532472    9.89858065992360    5.24978715736413
H         7.17826766751751   10.18686758986591    5.20488165509375
H         8.75377141241568   10.61039178952670    5.87741584402914
H         8.29482506261328    8.91225297573229    5.70224729427743

