50
CSD_code = QICJUI | q = 1 | S = 0 | Stoichiometry = C18H27NO3Ta(1+) | MND = 10
Ta       10.07383767177262    4.35219476976405    2.31988939891413
O        11.67547585966993    3.36132396235479    2.43581959935353
O         8.22516864471962    4.35979769690184    2.69992537758356
O         9.30218551132464    2.03427038808037    0.99223661182342
N         9.71342012173065    2.73118280019784    3.74297920672278
C        11.96939423921151    2.32023173093859    3.29116848490026
H        12.74079451432278    2.63340123232842    4.01315184540641
H        12.36809041857886    1.45620815307084    2.73701925346875
C        10.71549310754407    1.91556041160097    4.03268876422087
C        10.51635263592629    0.84529834383776    4.89277560750509
H        11.32375652141256    0.17553200673892    5.13964518010338
C         9.24275079535076    0.66167904729736    5.41943891314843
H         9.05634432273410   -0.16049957750720    6.09306560844100
C         8.20242945726299    1.51564083760931    5.07069649310654
H         7.20692363326441    1.36834855433014    5.45633673838145
C         8.48376799397214    2.56185883451324    4.20402284302457
C         7.54690156760264    3.60060442751242    3.63022246225177
H         6.67666194002058    3.10374083124744    3.17370923173938
H         7.17060954264085    4.24637994013891    4.44001172041391
C        10.58281166274748    5.63955626232873    4.11667797297822
H        10.49408736484882    5.07508596562039    5.04413864357445
H         9.91977778899084    6.49484288697652    4.20122337390894
H        11.60003499723948    6.01536388417619    4.07008666410915
C        10.77629422449927    4.81631808978629   -0.04792683976785
C         9.39852912890424    5.21999428191549    0.06433932804309
C         9.35560046974953    6.39543403818043    0.84745192588044
C        10.68717553930618    6.72135709962098    1.23653106095644
C        11.55965753285402    5.74956128247219    0.66747529314132
C        11.34756648220905    3.77872585640761   -0.96477076840806
H        11.91309586350822    4.26571892074377   -1.76036845314708
H        10.57207630443489    3.17722423044978   -1.43331112550119
H        12.03732667071245    3.12720311023733   -0.42745295433700
C         8.23077384654639    4.69332247975841   -0.71191568996176
H         7.38561959877265    4.49868389161637   -0.05114285378207
H         8.47944679589789    3.78603775848578   -1.25754690249917
H         7.90974514708504    5.43903846596515   -1.44047973899014
C         8.12318818735859    7.20716004849827    1.08416227493620
H         7.79121634859465    7.66809995686431    0.15317828884413
H         8.30196798983042    7.99680879308848    1.80787042732373
H         7.31700276076187    6.57315684194650    1.45170800825603
C        11.11323802534200    7.99631686817682    1.88477731154660
H        12.04827562062175    7.87645096371829    2.42523613385991
H        10.35848122534562    8.36575221212671    2.57373110478619
H        11.26619553577908    8.75747535655204    1.11774785663322
C        13.05398352950521    5.75863046574214    0.68487269979594
H        13.43521825527938    4.77449118918035    0.95509574848259
H        13.43762047876135    6.48635969064858    1.39368048764950
H        13.44088506500133    6.00994386025468   -0.30328504501473
H         9.94570440343037    1.63391304241812    0.39725934180728
H         8.46244465701886    2.05381781509205    0.52025308438918

