36
CSD_code = QICKUK | q = 0 | S = 0 | Stoichiometry = C10H18O4PdS3 | MND = 4
Pd        6.95914320917879    1.19765830736378    0.77199050799332
S         5.05908118583772    4.67018994053633    0.28830478629516
C         4.15328362946249    3.16974119007813    0.81475674105578
H         4.70745569772803    2.71996486250592    1.64775289774254
H         3.18888152909118    3.52509715098302    1.18250020821408
C         3.90843031844283    2.16109516030503   -0.29125578336673
H         3.45141504299912    2.62271656819934   -1.16707608243956
H         3.25152025004904    1.37355503012278    0.08300912745159
S         5.38862413748983    1.26225689063825   -0.88234257088241
C         6.07347885825749    2.50171581519439   -2.06879047611327
H         5.65803586436278    2.25764077781256   -3.04824352696319
H         5.72473370996799    3.48663500650785   -1.75711381555765
C         7.58110019111092    2.42526942796438   -2.08023198605143
H         8.00800868787868    3.19518860560018   -2.72348345703272
H         7.91881378457622    1.44654293422390   -2.42638103622136
S         8.33553354423194    2.59862441611377   -0.39100834334921
C         7.83522258239253    4.31664491036243   -0.00675770867460
H         8.74609301927070    4.75189322319320    0.40142840501454
H         7.58026737765788    4.81149032478648   -0.94282464481012
C         6.72360356247661    4.44186618083976    1.02304423477004
H         6.89231186327780    5.33275559641024    1.62899664723512
H         6.70496450882468    3.56689066513722    1.69248946745526
O         8.46866910956225    0.74656124426046    2.10649763944539
O         9.16539392214558    2.82644553088055    1.82916505259469
C         9.19603469027974    1.72840063635930    2.40754217574187
C        10.15971206770196    1.51914728346776    3.56485787711096
H        10.44524322249854    0.47322901348591    3.62249115900812
H         9.64628001188382    1.79665366128792    4.48313147470491
H        11.03042441432524    2.15522736088197    3.43833237078399
O         5.83440646736489   -0.17581332881061    1.85501415353746
O         5.77554602915758    1.67470707729048    3.03984801371343
C         5.61116441593326    0.44725546137700    2.93452809553144
C         5.08513662356128   -0.36274965765588    4.10340667626562
H         4.60357483319348    0.29380478861033    4.82164430754408
H         5.92890231153320   -0.85814797284749    4.57864343349271
H         4.39510932630867   -1.12235408349592    3.74713397875541

