34
CSD_code = QICLAR | q = 0 | S = 0 | Stoichiometry = C8H16N2O4PdS3 | MND = 5
Pd        3.04548434122608    2.28101142188845    1.42877269492036
S         1.48420931550540    0.40154061579040    1.07854200184004
S         4.26658293474139    0.69824421629075    2.92376122159151
S         1.48950553967386    2.36674534893408    3.87478710935604
C         2.69126603233971   -0.95996547854096    1.29547201462324
H         2.15267779438427   -1.90416546138896    1.19207294254914
H         3.35696975363222   -0.83630315282050    0.43793061305706
C         3.48716452851409   -0.94140461332144    2.58692308502080
H         4.29671188598354   -1.67052185856450    2.52065582901773
H         2.86786011571972   -1.19221580405558    3.44627687998620
C         3.78083415770078    0.94175388539823    4.66535261917248
H         4.18957161496024    0.09532761213982    5.21974179217991
H         4.31446790100828    1.85231185905349    4.93477740970865
C         2.29975474664814    1.10956538782909    4.95063700507553
H         2.19044342684620    1.45705959786974    5.97845904207953
H         1.74654015416728    0.17853966040545    4.84123815426667
C         0.04996745502954    1.41888419824960    3.27303719945852
H        -0.58185843496554    1.18169247990258    4.13024697149280
H        -0.46002937968504    2.13138332623920    2.62458480910979
C         0.35055066030074    0.14868924311226    2.49505884539477
H        -0.58070698041557   -0.22085714981522    2.06359887103372
H         0.77956511653870   -0.63200094360236    3.12113122139182
C         2.17918796324241    3.54579573608284    0.01224647241707
H         1.99312808130016    4.44771807653971    0.61037461938896
H         2.74721324145609    3.71380918728047   -0.90711789963792
C         4.67415852657626    3.53347917183913    1.28955860356481
H         5.61038807558020    2.97886391901930    1.37713792680271
H         4.66098272424077    4.32616837776861    0.54483270924876
N         0.97291227104596    2.88598745965582   -0.27653091281621
O         0.14279910989548    2.79251351821314    0.63055969634854
O         0.79874729008652    2.39930582818868   -1.37928323697184
N         4.17258941077605    3.93356393288701    2.52290069332942
O         4.61881051752362    3.38480118329800    3.54068123389888
O         3.36015010842137    4.85297921823621    2.58278176209921

