32
CSD_code = QICNUN | q = 0 | S = 0 | Stoichiometry = C14H16AuN | MND = 4
Au        3.06426584165946    3.19091185795323   25.67760527058987
N         4.43131448439192    4.59868788785189   26.44932067890245
C         5.27260677031909    4.40645592847162   27.45571470975187
H         5.24561962304646    3.42974766884779   27.91357169000287
C         6.13892404149390    5.38042993752172   27.90785774114279
H         6.80550336918559    5.17899999056344   28.73035407503322
C         6.12094554103113    6.61619585182363   27.27250300140186
H         6.78065770591154    7.40875026358371   27.59362096681681
C         5.24857354544355    6.81622439453320   26.22527123822187
H         5.22297821421965    7.76837743551816   25.72176500606281
C         4.39458188968921    5.78516013010800   25.81365590582865
C         3.44286713050105    5.89629145529867   24.72344049768180
C         3.29144976811297    7.06585562463847   23.97375327124561
H         3.89007538701060    7.94019355973136   24.18417947250122
C         2.37234423884153    7.12307387965965   22.94894043265239
H         2.26311481208403    8.03298800627933   22.37526542615827
C         1.58554060655845    6.01716536715637   22.64792841526285
C         1.74815033790427    4.85889196360974   23.40115781513356
H         1.13067315596219    4.00610523401504   23.15568649505084
C         2.65903689137799    4.75750026442983   24.44026910282839
C         0.56738627978614    6.07228158067966   21.55186697750954
H         0.77677920282945    6.88727250365359   20.86271493551850
H        -0.42476248641261    6.23115918667993   21.97639116966540
H         0.54533710603333    5.13530228925057   20.99896855318183
C         1.71553062235735    1.98307929325145   24.80934065672892
H         0.72226159152186    2.41095660035382   24.89692003087655
H         1.67907552899617    0.98943441806400   25.23778972316787
H         1.94059934265171    1.87257750623213   23.75376164160591
C         3.57369931533022    1.70888844417352   27.00792537907990
H         3.01561821386121    0.78201587350550   26.91501238941454
H         3.42677416319304    2.04758480910340   28.03404530266721
H         4.62547776510728    1.44064079345775   26.90310202831335

