71
CSD_code = QICRIE | q = 0 | S = 0 | Stoichiometry = C19H41B10Co | MND = 11
Co        8.73276638250655    2.96464464195421    7.26189797797208
C         7.33312778609799    2.97182060012913    5.78879989986813
H         6.55877687693843    3.73718211127068    5.79701926125247
C         8.89390874676591    4.90371271435575    4.61797923444526
H         8.67218845624000    4.92085361445803    3.55139641936715
H         9.91260386578759    5.27479488143033    4.72117678972235
H         8.23298563801440    5.63600512593337    5.07785231751001
C         5.76580206550500    1.85994700584984    7.75079433479094
H         4.91996362405313    1.37683085477601    7.26380283167457
H         5.45180369746334    2.87679689163688    7.97909098625644
H         5.90007163448145    1.34457656622693    8.69896421344285
C         5.56279629231897    1.66767049624558    4.18800729734648
H         5.27383947351183    0.72950281005462    3.72231770912877
H         5.56632714226963    2.41992991103351    3.39969346274361
H         4.75864158043936    1.94201987949209    4.86822225419208
C         9.86180758571803    2.36374702119938    4.96431759521775
H        10.75246930245287    2.84071099828601    4.56673473308851
C         8.60518013294367    2.37895457159878    2.42413118742711
H         9.47071911043045    2.98221536137945    2.15569214577812
H         7.72297920456815    2.98632236563720    2.22961215700750
H         8.56389163903468    1.55337780566935    1.71621653618099
C        11.51999184798732    1.33473988654213    6.95210400131661
H        12.03651030503602    0.44618933554617    6.59201372985132
H        11.53418679410682    1.26665049257925    8.03613976580355
H        12.14488933823104    2.18313958207322    6.67659178464752
C         7.66885461650650   -0.82196091179933    3.37757525227603
H         8.52377191401214   -1.38406921828046    3.00822349573628
H         7.18598990556031   -0.38478079846320    2.50645581361764
H         6.97297956633278   -1.54810236186192    3.79039396686912
C        11.09993608375267    0.18328001727825    3.76357029529835
H        11.01862363723193    0.46924220693783    2.71606408538462
H        11.16907055016998   -0.90186204272865    3.78710575988059
H        12.05641950045959    0.56426234274944    4.11610974479382
C         9.68488167703168   -1.63131426871587    6.26500927743911
H        10.77112988351352   -1.66400116364497    6.31855156420384
H         9.38638106615863   -2.35078728035017    5.50553192514569
H         9.31328375293814   -2.00949851750546    7.21386207278579
C         8.09776723781433    4.72044165317286    8.40611526763473
C         9.36173291082832    4.98509294973362    7.83928688937213
H         9.60936825209044    5.84660040772948    7.24362571137438
C        10.26614098074378    4.00251209900411    8.28271111755638
H        11.32768845487911    4.00201845432500    8.10588687911753
C         9.56862859448184    3.12412523688407    9.14651122970981
H        10.00892773450896    2.35028563565456    9.75090970590538
C         8.23006905350844    3.56915717727707    9.22234251035149
H         7.46895309540788    3.17304521793616    9.87184236011783
C         6.90014268131597    5.61230947468819    8.32350418845747
H         5.98352855203868    5.02856623082032    8.42848437591032
H         6.87317018599428    6.12050216251589    7.35685506708570
C         6.94541638629198    6.66533324676621    9.43863402352507
H         6.98428578870789    6.15903802787110   10.40558237136803
H         7.86017976330760    7.25382700307189    9.33823088999995
C         5.73485237740088    7.59382880820580    9.39791393544005
H         5.69409763183742    8.09341175733218    8.42697276218581
H         4.82214315945933    7.00272874265350    9.50404948703500
C         5.78973576852518    8.64138092673479   10.50300032648148
H         4.91864608634257    9.29106310236321   10.45959580849153
H         6.68177656103961    9.25587210087493   10.40207610627110
H         5.81361552220688    8.16369797915855   11.48003826295337
B         8.70101559574695    3.42579142742642    5.20377862237210
B         7.08261740438652    1.76044118936017    6.82978831725482
B         6.98228415777015    1.57467223985573    4.93948553776426
B         8.59369420353108    0.90182859716617    7.25126972394595
H         8.67756307416305    0.46115288379258    8.34052590414108
B         7.42201166465925    0.19898141563384    6.09982039985604
H         6.66468137773431   -0.65797867120076    6.37206698336770
B         8.66100490101243    1.83691208683423    3.92671374853631
B        10.03022820601270    1.40745416964266    6.33264676512403
B         8.11355463462349    0.28780206168757    4.46570982023992
B         9.86390090078951    0.72777187505449    4.63172131364133
B         9.11942642426918   -0.15881119900179    5.92598170794988

