136
CSD_code = QICREB | q = 1 | S = 0 | Stoichiometry = C60H72P3Ru(1+) | MND = 8
Ru        9.22702474233412   11.60981926635264    4.12451482763267
P         8.35406272434089   10.06400684028146    5.55567723254765
P         9.71542394795116   12.77812092780871    6.07141181469984
P         7.29901008461666   12.68559729022139    4.97217925558581
C         7.98259952176188   12.48941306357893    6.70973495066742
H         7.62150077819859   13.17042150191555    7.48674814262412
C         7.89589620288401   11.01095843467959    7.08800109180461
H         6.88850239792677   10.72990460502283    7.40743161528401
H         8.60281616486729   10.76118767888995    7.88744447061850
C         6.80377300246325    9.22043946808363    5.12848805236933
C         6.42175743841397    9.18421953764982    3.79818071736751
H         7.02656619542341    9.71354828696379    3.07479596193118
C         5.28280290409055    8.49413589700246    3.40396090792788
C         4.51251748107300    7.88331772136648    4.38082300010274
H         3.61341804653667    7.35573575584132    4.09557421020755
C         4.86978548035433    7.92088216981348    5.72591187959728
C         6.03479449841587    8.57392391533480    6.09210911142053
H         6.35374994929880    8.56931558219725    7.12612184577899
C         4.92403642203879    8.38841151212054    1.95382883249914
H         3.88641312109305    8.09296477765006    1.82630604611601
H         5.54831864272477    7.63392685954173    1.47330301930051
H         5.08789154906602    9.33436643587190    1.44316098518625
C         4.00162506077255    7.25405228172670    6.74756380357444
H         4.44697939469131    7.30903003178905    7.73752725928108
H         3.84785631858309    6.20693101261537    6.49263310242223
H         3.02386792796258    7.73361080010110    6.77694126167786
C         9.37401774493542    8.69059786332080    6.16271568377063
C        10.54730396383952    9.00651977284051    6.84068670662742
H        10.78745912898293   10.04534852563945    7.02537999844966
C        11.40976532776017    8.00897404406632    7.26490706061861
C        11.08839948376373    6.68658276432640    6.97954300763019
H        11.75637287821458    5.90073979013529    7.30227961536743
C         9.93488145566392    6.35030253721709    6.28273349812115
C         9.07961747013789    7.36347649213118    5.87001597628338
H         8.17683762194847    7.11546459781139    5.32899045779020
C        12.67199108781591    8.33947366333109    7.99956882819461
H        13.53844823642544    8.09315111459573    7.38643653171231
H        12.74123473181482    7.75739948899854    8.91674636160645
H        12.71164182138701    9.39694076539352    8.24882200498867
C         9.61735150570857    4.91552192352561    5.99558225934721
H         8.81659557488019    4.83093983781317    5.26543138653456
H         9.30116448879720    4.41454156583167    6.91017906482472
H        10.49579420801361    4.39481750947065    5.62010133854774
C        10.87429088910781   12.46034747736866    7.43804210568001
C        12.20768930593172   12.31960628792324    7.07189900651873
H        12.46536579714003   12.36836806018724    6.02204890068491
C        13.18960188963437   12.11494755355722    8.03084626289116
C        12.80583200653448   12.05513396194848    9.36438471789578
H        13.55705169804613   11.89011898136594   10.12348587956116
C        11.47869751993604   12.20294983122920    9.75312525835880
C        10.51149155088519   12.40873559708602    8.77972743735705
H         9.47740681641751   12.52904452059084    9.07329493122031
C        14.62741617021728   11.97757943099946    7.63769764768965
H        15.18088836612650   11.40423866603749    8.37692666632927
H        15.08537227043469   12.96418437941935    7.56441170034524
H        14.72238639662768   11.49200114994979    6.66901275065802
C        11.11243502329881   12.13252391753374   11.20310623821312
H        11.68082366348411   12.86537706902904   11.77320208438612
H        11.34933408397906   11.14757391579843   11.60344380091841
H        10.05225430012363   12.32041278881007   11.35229219311674
C         9.80596558631498   14.59277017919275    6.00362118926831
C         9.83817900458654   15.35499780469843    7.16603780970099
H         9.84920427217787   14.86984944459944    8.13225842054918
C         9.85492199112484   16.73900796054423    7.08877032496866
C         9.85768527654491   17.34206834144221    5.83585716819893
H         9.87363063705712   18.42086193182044    5.77442158587881
C         9.84405755737878   16.59731613438167    4.66530542320236
C         9.81602393071852   15.21332482724470    4.76307914367230
H         9.77471801326031   14.59882737401324    3.87321700174328
C         9.89118538748210   17.57550178990702    8.33028525824203
H         9.53706014388858   17.01490082798739    9.19197414116021
H         9.28307582274376   18.46950285526491    8.21256653217648
H        10.91418216521064   17.89344482726548    8.53215377231840
C         9.88008609024596   17.26997450008258    3.32852384654123
H         9.42274290848022   18.25450247213699    3.37947209775852
H         9.35892300306964   16.67565888684220    2.58288060647830
H        10.91344331024140   17.39736535276529    3.00376996463109
C         6.93347635843952   14.45738134744474    4.76588008654176
C         6.81402153064535   14.88003351970074    3.44642952906066
H         6.97664005546136   14.15725459684772    2.65555413314487
C         6.50219595272276   16.19559971457099    3.14577048208835
C         6.32372301179854   17.08558951377909    4.19797240914006
H         6.09705488735325   18.11923711916259    3.97892478848654
C         6.42228498828122   16.68063304385755    5.52206063400098
C         6.71126922352641   15.35221066739305    5.80186514412646
H         6.77692346489315   15.03429236038286    6.83145333605193
C         6.34933502769751   16.65810269707334    1.72944282379082
H         6.83839345223012   17.61847717922776    1.58112687827112
H         5.29277984489586   16.78531621812979    1.49425244631705
H         6.76668771874170   15.93751076438643    1.03014078492943
C         6.19876480046349   17.66078769827971    6.63145869587738
H         6.66256828215957   17.31804332347795    7.55285405567832
H         5.13026188253433   17.78238717262309    6.81090751652793
H         6.60522915210862   18.63521600635183    6.37106026776002
C         5.56993671044277   12.11186230687814    5.03143500620272
C         4.85194833828711   12.01769131346096    6.21372248146203
H         5.31325941162138   12.26561275328038    7.15895122612562
C         3.52208417763500   11.61383867458006    6.19341570788882
C         2.91897029756508   11.35958570944905    4.97203547603832
H         1.88199321221401   11.05649074257066    4.94659504755958
C         3.60674869873818   11.50463357099226    3.77134845756067
C         4.94212627384505   11.86593856214345    3.81449007523081
H         5.51322146121448   11.96713830026389    2.90060324348356
C         2.76877101577429   11.45259534658824    7.47787260538570
H         1.69999271130423   11.37978242005013    7.29700602066127
H         2.95549630417835   12.29317511806541    8.14324880088355
H         3.09236184223332   10.54456896142687    7.98736793551703
C         2.89339034291508   11.28316072702257    2.47438544064923
H         3.55980642377716   11.42636115606573    1.62827451620802
H         2.06319351445208   11.98206693332708    2.38177035096573
H         2.48265644560732   10.27622452335236    2.43363084487336
C         9.16958412488358   11.24350903083073    1.88015009571836
C         9.81623548171726   10.13778774148665    2.50477344188098
C        10.97761435813315   10.63309437954818    3.19495271051802
C        11.09483124552434   12.03384104533269    2.90727823824723
C         9.96590714370878   12.42313754623861    2.12832383162356
C         8.08402914151420   11.18895800403934    0.84638050490792
H         8.53615865860165   11.24036549284867   -0.14672447335228
H         7.39914275259557   12.03066151377005    0.94244119299150
H         7.51053548108054   10.26675059573440    0.90588171482349
C         9.53113526464752    8.68045811573727    2.30232634449403
H        10.35728160981434    8.23603739197495    1.74454808364020
H         8.61659738805551    8.52334477226343    1.73645168449329
H         9.44572558118994    8.15084477336441    3.25216547831250
C        12.04693447482057    9.76043664425430    3.78066534499197
H        12.77758917398296    9.50707248379429    3.00939942493803
H        11.62344445574316    8.83590368697225    4.16801967856905
H        12.56800092968415   10.25841863914352    4.59612047571852
C        12.30588071544415   12.88396959492936    3.15300219398401
H        12.74905160523931   13.15424719099706    2.19287335495563
H        13.05261053587904   12.33708603050292    3.72332962623499
H        12.06724839490147   13.80553597696171    3.68479469723388
C         9.85536102965149   13.69025983328342    1.33165621564130
H        10.12466403315722   13.47745396547776    0.29428338159027
H        10.53355316182675   14.45355786204695    1.70568729497019
H         8.84322686600871   14.09121461639121    1.33427716744343

