72
CSD_code = QICSOL | q = 0 | S = 0 | Stoichiometry = C38H26BrN2O4Re | MND = 6
Re        7.57999690349665    3.85426596125324   -1.56897306521352
Br        9.38250745320420    5.22125596805484   -2.52981228512658
O         6.40726197878875    4.93651327427690   -2.04398286651982
O         6.67828370591481    2.24355712005187   -0.65257506597370
C         6.47064282680191    1.21281714787629   -1.38323642394446
O         5.90732673736538    0.20378519122932   -1.02622720232712
C         7.04305635243018    1.36743455015107   -2.83244234831900
O         7.87219389975699    2.47531337413686   -2.86009232035053
C         5.79858432588825    1.53668336087740   -3.68810550113949
C         5.50745932354793    2.74922726028778   -4.29824925789745
H         6.18415487202635    3.58777559691281   -4.19785217819880
C         4.35303425152869    2.88188329236059   -5.05119271233691
H         4.13313790565561    3.82808439520279   -5.52290731704918
C         3.48913842204143    1.81140711002258   -5.19830972497436
H         2.58869032449357    1.91836165114320   -5.78552458275062
C         3.78097690517825    0.60108336403171   -4.58915004149868
H         3.10852073756778   -0.23701240458067   -4.69973711812796
C         4.93056543288010    0.46033684989851   -3.83534078362765
H         5.15534882855530   -0.47435638089150   -3.34417458503780
C         7.86299852696972    0.15823169574996   -3.24925268599708
C         8.02773344644205   -0.12298942070640   -4.59970123079678
H         7.51767664388789    0.48263089807820   -5.33392993676132
C         8.84146862186969   -1.16691972000603   -5.00032584692211
H         8.96171709614053   -1.37802568005561   -6.05260879230411
C         9.50145455539153   -1.93728987491627   -4.05777060138917
H        10.13532420545364   -2.75384503516613   -4.37115442112109
C         9.34692848193032   -1.65587056241636   -2.71193742873995
H         9.85852506100549   -2.25379167960573   -1.97104275952252
C         8.53615902779789   -0.60896746856067   -2.30796687957758
H         8.41549183103749   -0.40343961560486   -1.25333630238530
N         7.63005297628391    4.76420076420552    0.34148735524569
C         8.36341504659228    4.14114416753886    1.29049700852209
C         6.83063017691244    5.75260521911593    0.72435365460192
H         6.26250053283810    6.23459338678648   -0.05982513452211
C         6.72464671088927    6.16201303713782    2.04355399872118
H         6.06884519313756    6.98277998313820    2.28746241487351
C         7.47184539983968    5.55068428563866    3.04148606866151
C         8.31592079650642    4.48326767195398    2.65783397993065
C         9.07807698048801    3.69815420092461    3.57101921035351
H         8.96441677650977    3.89307511519323    4.62617053682562
C         9.91031566929841    2.71508303035761    3.14685778599457
H        10.46363053172979    2.12472301349210    3.86086220390526
C        10.06098238625107    2.41735929315251    1.76282796250788
C        10.94030437625169    1.43863568461163    1.24215388124366
C        10.91949447479906    1.21204636705820   -0.12577625805471
H        11.57833092462702    0.48115700605806   -0.56728921443625
C        10.06577767355986    1.93881095702063   -0.94581736853142
H        10.05101463410245    1.78328993790487   -2.01712398668712
N         9.23783917987765    2.85046273141280   -0.47265388099416
C         9.23768316145529    3.10514307028838    0.84825857918040
C         7.38135306026536    6.02755552669028    4.42639465232734
C         6.13368652729744    6.19788118108634    5.02291022136292
H         5.24149412781900    5.94073924185526    4.47127778378676
C         6.03830921101518    6.66275452133396    6.32117236865502
H         5.06730891287514    6.78140329197351    6.77789755369218
C         7.18375570471573    6.97912703151930    7.03325647105100
H         7.10740291331527    7.34646731936311    8.04536175118116
C         8.42702600033042    6.82956945556377    6.44114068048790
H         9.32146796113246    7.08719438747296    6.98833842858832
C         8.52897504768104    6.35351916447109    5.14704854919076
H         9.49768357849292    6.26415795484385    4.67711547150788
C        11.86952163347030    0.68860063191705    2.09664570764577
C        11.91166696167827   -0.70180912935112    2.02659247925751
H        11.23173908771675   -1.22223502755291    1.36810516024814
C        12.79542210115943   -1.41276917330449    2.81693106616186
H        12.81307115704052   -2.49093304244813    2.76486015625312
C        13.65862731043065   -0.74468880225739    3.66988393010283
H        14.35221273358929   -1.30103474999639    4.28190282389803
C        13.63474770182163    0.63895408027751    3.73136681467713
H        14.31454123151632    1.16366311809489    4.38583409874211
C        12.74284800523131    1.35458232026737    2.95414584257080
H        12.74185674450818    2.43463155611297    2.98389145720264

