65
CSD_code = QICSEB | q = 0 | S = 0 | Stoichiometry = C29H24BN6O4Re | MND = 6
Re        6.65684822620554    1.21053642632165    2.97417772527942
O         8.13363560474574    1.14908941709432    2.20220171501709
N         5.89434199663109    4.10505065999836    2.63800084138319
C         3.84004725970628    4.94514834024256    1.39326455894894
B         4.60491664131192    3.63193944908590    1.91239036703078
O         5.90931382515195   -0.67308930951654    3.15955980711832
N         6.75319070817404    3.26180110730494    3.22197711428595
C         4.17181933723506    5.52337576393395    0.16657307548844
H         4.92914522479508    5.06202095236679   -0.44981934038196
O         6.85909885141360    0.92676419357935    4.86384504272644
N         3.83917005490544    2.74110709203990    2.91772757640899
C         3.57675013433918    6.69327269561425   -0.27214738036091
H         3.85189163585371    7.10872469859562   -1.23048943574633
O         5.84837302689212   -2.43989180237918    4.49357034688959
N         4.50724909454286    1.74969114475375    3.52839319301304
C         2.63888094846669    7.33517805194815    0.51764948438069
H         2.16744946802545    8.24451220434926    0.17609993810724
N         4.96505925852151    2.61544073641755    0.79926375785947
C         2.33147603812347    6.81220210013351    1.76108117747371
H         1.62675952572160    7.32085497364983    2.40261020646387
N         5.71381077418627    1.54429022091955    1.09267524684929
C         2.93267077791648    5.64186175613990    2.19181877664386
H         2.70648716037285    5.27979516858120    3.18370136499306
C         6.25670143978928    5.36120736637930    2.92516013972946
H         5.70108055824136    6.20196169037832    2.56306199143400
C         7.38968330527089    5.32413328939876    3.71574588997475
H         7.93485049509323    6.15467939439661    4.11249012571409
C         7.66250389673819    3.97211019346569    3.88010717430824
H         8.44811854888305    3.47867358685436    4.41791571531778
C         2.53405975988587    2.64342962555406    3.20677095261790
H         1.81291780983144    3.31140206524708    2.78340897988211
C         2.35609433449548    1.57442830589393    4.06064675653954
H         1.44285096466644    1.22267345324569    4.49266146209229
C         3.63122116865410    1.04282533033908    4.23027019916416
H         3.93096882268081    0.19840800596413    4.82021024231353
C         4.42025361795452    2.44705451404149   -0.41328136037741
H         3.74670100336988    3.16585680270000   -0.83223717872277
C         4.86096571776842    1.24505298936852   -0.93102053109798
H         4.62405744303333    0.81779495682149   -1.88273297267658
C         5.67274666681917    0.71018900099239    0.06306817794716
H         6.21879341010103   -0.21190672333212    0.08973937078793
C         6.13691446733350   -1.28826907075890    4.26923424823074
C         6.83043882062833   -0.37744145578474    5.34241549130939
C         8.26544247844000   -0.88078594928404    5.47694990441672
C         8.97631156470453   -1.22947682478592    4.33474336049784
H         8.50640174561469   -1.18246608885682    3.36125509859880
C        10.29506565590158   -1.63693002172149    4.43279148423579
H        10.83622380438718   -1.91118275936457    3.53957504818192
C        10.91738868562827   -1.69239428697578    5.66781131124697
H        11.94607721123407   -2.01334809716105    5.74392255336746
C        10.21777501906215   -1.32669323399571    6.80466068986921
H        10.69993740049928   -1.35524793033630    7.77111021044428
C         8.89917378759749   -0.91715721586576    6.71179066192105
H         8.36319631205417   -0.62440563854172    7.60229018026606
C         6.04008914841616   -0.47212970495116    6.62896358343117
C         5.91090538986636   -1.69391174189749    7.28154134717474
H         6.40121971704391   -2.56599434024869    6.87960318127480
C         5.14374276123617   -1.78644205910228    8.42838665955520
H         5.04420572835252   -2.73869105646748    8.92831840309784
C         4.50571931741350   -0.66708959968270    8.93810398550592
H         3.90922392271953   -0.74393654767494    9.83563867577909
C         4.63673214672105    0.55046593432166    8.29342544309655
H         4.14475010843367    1.42902316026757    8.68637892094091
C         5.39792423373348    0.64736036995768    7.14217158906501
H         5.50918603646037    1.59509427001860    6.63500767366536

