93
CSD_code = QICTII | q = 1 | S = 0 | Stoichiometry = C48H39CuN3P2(1+) | MND = 4
Cu        4.50616980255148    2.30804218431257    4.76587060553453
P         5.98955214510665    0.74039347647006    4.21496642589947
P         3.80569568187816    3.66517227603891    3.05517947862451
N         2.54823997125635    2.23876198292701    5.60893268348926
N         4.76575854284375    3.54293514238573    6.33860512859884
C         3.61623762250475    3.88301097091421    6.88763030244195
C         2.84932974130278    2.97878996666953    1.67147337495331
C         6.24758927404042    4.88831569636844    3.08258947318668
H         6.24790272854602    4.53352329932833    4.10544578054675
C         5.15170288848441    4.60805837098683    2.26949335759955
N         3.76981876655784    4.89695353377715    7.78197199569932
H         3.04624457389782    5.33445141629628    8.32695762189453
C         2.72946600039678    4.96405769786929    3.73201815320350
C         5.40370176123049   -0.70032076663867    3.26999408069422
C         2.38990766655036    3.21555223196300    6.51542122204066
C         7.26095467011597    1.48122408807405    3.15142922419330
C         5.72397715512518    4.34889951490483    6.88224041512330
C         5.10257102057325    5.22456098619269    7.80270076498141
C         5.15817420158989    5.01074529127068    0.94007560723244
H         4.32672005247585    4.77357688085951    0.29266080828813
C         6.81306461730638    0.48899115212048    6.83384125956923
H         6.15228533838209    1.33299896086104    6.98956774323091
C         6.93998260594878   -0.04028163255862    5.55391161549696
C         5.83072494860064    6.16830245054901    8.51175307454665
H         5.35694798241475    6.83627181403407    9.21356807389807
C         1.48404107062953    1.58620483535491    5.17545199700306
H         1.66866815426277    0.81830954406038    4.43631122448707
C         7.09970921509940    4.39629243288048    6.67056430392616
H         7.57503303662735    3.71315076097671    5.98301172407534
C         1.13602656446368    3.55137629990757    7.02474639401242
H         1.02864142632780    4.33984797982305    7.75256241501548
C         6.88989464220367    1.87424772403060    1.86609584260656
H         5.88932439142730    1.66151601660061    1.51034897179568
C         4.20071903705006   -1.25740014248739    3.69859926883285
H         3.69313561020587   -0.81249365732658    4.54661792163379
C         2.05856024975774    3.74778211913514    0.82076506937661
H         1.96797812768320    4.81363533321182    0.98171220667083
C         0.20223008677541    1.85421546129445    5.62802232939581
H        -0.63776259027274    1.29292841659130    5.25273722334097
C         7.19025411608005    6.20887887496843    8.27998504959757
H         7.79382552367452    6.92824736708063    8.81097302206629
C         8.47405708150013   -1.68483281475518    6.38431543446084
H         9.11883093479843   -2.53392958478504    6.21456156516875
C         1.35165899166552    4.76491846112256    3.79257636119598
H         0.91105499631861    3.90750813781320    3.30152731562113
C         2.93974731324177    1.60360438770560    1.47661107693198
H         3.54343878738432    1.01401789757081    2.15778072061605
C         7.77028478417756   -1.13454478221948    5.32944040633388
H         7.86034475563710   -1.54856951332050    4.33494793280773
C         0.02942749173609    2.85448459318447    6.57553122753688
H        -0.95316575177668    3.08786341551958    6.95550776046186
C         1.38180906582142    3.13847463788885   -0.22017030895484
H         0.77018139112832    3.73349391212389   -0.88185424057740
C         3.67324369463231   -2.35779243179653    3.05059508969903
H         2.74210341881585   -2.79013771502718    3.38562599630230
C         6.24346878695310    5.71151428679913    0.44365894618767
H         6.24698023771556    6.02726832142694   -0.58898403955394
C         7.52372332802414   -0.06422368072906    7.88386336592951
H         7.42885037034781    0.34779045998901    8.87758177613927
C         7.32486368826085    5.59373225461800    2.58335520124093
H         8.16865156675271    5.81257168567915    3.22058848568816
C         7.81296716503342    5.33726316309353    7.37955000191386
H         8.88116377136941    5.40644909267462    7.24457685246808
C         6.07430453344543   -1.25206853133353    2.18454780259042
H         7.00524913155966   -0.82144378507842    1.84345609717418
C         3.29178781536970    6.05619467257177    4.38850286769715
H         4.36180677895307    6.21103196567312    4.35314760420283
C         8.35332821820814   -1.15068363923543    7.65854156083043
H         8.90517510027480   -1.58595096905606    8.47771492164722
C         4.34302375263269   -2.90442260096416    1.96667438492587
H         3.93215257176920   -3.76202183514219    1.45606570978875
C         7.32135546564485    6.00875612314562    1.26130700872703
H         8.16238947942027    6.55732469104088    0.86562665337138
C         1.48575378713115    1.76965831598237   -0.41785313128023
H         0.95531817785310    1.30345571687716   -1.23402939633654
C         8.53391258021574    1.78274981380569    3.62278257210717
H         8.82035764353272    1.49293175541952    4.62463777425081
C         2.26289826011195    1.00005376893507    0.43266765664239
H         2.34070853005977   -0.06699037426944    0.28542438178384
C         9.06966207836783    2.80637533683038    1.51817401213020
H         9.77692082765842    3.31413937300006    0.88049658182198
C         9.43366920062036    2.44213850348330    2.80365044165755
H        10.42408626886810    2.66872675043847    3.16952124103749
C         1.11318964101333    6.75166748344297    5.11654609324916
H         0.48398274273558    7.45015053241571    5.64717879981757
C         2.48452903311403    6.94681288533945    5.07182897097639
H         2.92693620082001    7.79774991458874    5.56908676262760
C         7.79655227367330    2.52104759482732    1.04968732306982
H         7.50974966056957    2.80971598615891    0.04975922995701
C         0.54946054251213    5.66134058304470    4.47312723846109
H        -0.51917433653130    5.50812291753040    4.50343705003801
C         5.53915844708618   -2.35252522043225    1.53771358611197
H         6.05997130223123   -2.78208826542085    0.69508803840586

