157
CSD_code = QICVIJ | q = 0 | S = 0 | Stoichiometry = C60H88N4NiP4 | MND = 4
C         2.05850721496552   -1.08659979885685    6.12268004501953
H         2.83484223958090   -1.46526855171868    6.80139293732813
C         1.10835914917691   -2.21110905482307    5.72072252737795
H         0.63149855551943   -2.64192576268613    6.60444882777722
H         0.32215090167784   -1.77145192025453    5.10028919960860
C         1.84445227717682   -3.30430055864167    4.95279152967234
H         2.60523004893150   -3.75146989218401    5.59891712878534
H         1.14607247348739   -4.09493148814511    4.66719015001863
C         2.51457429597181   -2.73084053918058    3.70877318149700
H         1.74756845628889   -2.36020721694593    3.02759144183749
H         3.07518845074524   -3.51305916816494    3.19079988565296
C         3.44664766172145   -1.58479074542511    4.08665341808024
H         3.88968107789385   -1.15325495173132    3.18563533649471
H         4.26192112574393   -1.97088088352210    4.70482169563028
C         2.69608132972969   -0.50654836944267    4.86364430366452
H         3.38652606190093    0.29977607826619    5.12022644590873
H         1.89624090770082   -0.08431902276703    4.24849947410345
C        -1.62301615431541    3.67756993036426    9.03466083690016
H        -1.26847627616472    3.87540569511799   10.05466265068221
C        -3.07339913697301    3.20058197380962    9.06074710077660
H        -3.34401560400433    2.89512882421541    8.04556085340044
H        -3.17276415526776    2.32031238746525    9.69990175497182
C        -4.02430302956176    4.29076834887462    9.54289661960160
H        -3.77784936726843    4.55841012581908   10.57373114865020
H        -5.05142074231844    3.91766478856830    9.53111140296177
C        -3.90596769998464    5.52819744690682    8.66040499583137
H        -4.19734376767013    5.27358065751123    7.63838208257772
H        -4.57999967259114    6.31097945387818    9.01602209107782
C        -2.46712942412371    6.03167765084722    8.66512169888723
H        -2.19306105221446    6.32934878755454    9.68057914145618
H        -2.37504802838753    6.91086536994064    8.02279942134502
C        -1.51380495781127    4.94131455124687    8.18474110939693
H        -0.49058796076165    5.32195071034946    8.20573228720272
H        -1.74915570088386    4.67612574157767    7.14935157666751
C         2.44649886695421    1.40766294739937    7.41579619536211
H         3.34364747180128    0.80451182661693    7.60073592682024
H         2.64691833139010    2.07668028031975    6.56022169551511
C         1.09075204567634    3.12966682667456    8.41879115615816
H         1.28407946817443    3.75233561821812    7.52640854899701
H         1.05912384046197    3.77816852117183    9.30120373701828
C        -0.43671760799448    1.18872197464147    9.71206223331733
H         0.41306797829278    1.50921023142767   10.33853041760539
H        -1.35835203555550    1.29517355487320   10.29126072324170
C         0.91624470487104   -0.53254000582205    8.67011094340246
H         0.93325336592003   -1.61691770744560    8.52616560269089
H         1.78644528906424   -0.23698548582175    9.28060515535193
C         3.33215363192561    2.77207081545868    9.18707722867467
H         3.70257993627312    3.59926259509575    8.55474169391554
H         4.11481684049036    2.00736600390886    9.23295677208599
C         3.06079121747276    3.27142341820724   10.57982240770434
C         3.09287049202945    4.62712501780199   10.87804372027007
H         3.33333927397233    5.33925349919798   10.10035089536798
C         2.82349471033367    5.07408280358609   12.16006307709860
H         2.85379156746271    6.13184144316539   12.37812166220074
C         2.51433949875291    4.16721792673028   13.15859995737399
H         2.30371825344615    4.51444501027680   14.15953746557811
C         2.47921071464294    2.81316275772332   12.87003050649142
H         2.24206856238812    2.09860862253637   13.64353817137438
C         2.75052597647164    2.36801487374026   11.58947670856539
H         2.72418587133546    1.31035318552664   11.36997514339148
C        -0.69266913550245   -1.11402548766312   10.37871778101422
H        -0.67460247116270   -2.12900950983884    9.96865827385295
H        -1.72001398089302   -0.88470705441071   10.68038152443744
C         0.20979175661280   -1.03766388589804   11.58677030721818
C        -0.12671402758456   -0.23674130808113   12.67143526845475
H        -1.06247521499963    0.30446856683052   12.66562413854933
C         0.71180445220860   -0.13843568138341   13.76729336590068
H         0.42308485654662    0.47358629850501   14.61019141968817
C         1.91270932007551   -0.82697205712227   13.78732450249595
H         2.57152345613517   -0.74888986267096   14.64006201140656
C         2.26113074669654   -1.62450443408784   12.71086166763961
H         3.19380637150713   -2.17013396359733   12.72263332395799
C         1.41253950330227   -1.73439454484684   11.62350532544866
H         1.68247600380322   -2.37968017982032   10.79958759160586
N         2.13971986093504    2.15220132866078    8.61638958975999
N        -0.34148214684030   -0.19549852589773    9.29987490890172
Ni       -0.74000198963477    1.26062097753791    6.36646301399309
P         1.06215918569732    0.23486834890352    6.98082362079759
P        -0.58599113921929    2.32972568794538    8.25185089320972
C        -3.53851021414380   -1.08660099658165    6.61024692742500
H        -4.31484526414480   -1.46526977107258    5.93153406277405
C        -2.58836183440786   -2.21111010071029    7.01220417275235
H        -2.11150149342105   -2.64192687184942    6.12847777646355
H        -1.80215345850515   -1.77145279928612    7.63263717718949
C        -3.32445454495228   -3.30430171825817    7.78013547440668
H        -4.08523229313999   -3.75147141497069    7.13401010900528
H        -2.62607439494019   -4.09493236770899    8.06573679640714
C        -3.99457649879645   -2.73084171148163    9.02415387349132
H        -3.22757068398380   -2.36020796801611    9.70533538383567
H        -4.55519020954379   -3.51306048606855    9.54212742805889
C        -4.92665030372487   -1.58479228335442    8.64627366535622
H        -5.36968379621060   -1.15325659705289    9.54729174595138
H        -5.74192369705351   -1.97088271954784    8.02810547722311
C        -4.17608423054653   -0.50654969895890    7.86928280767153
H        -4.86652900163372    0.29977474813726    7.61270083755241
H        -3.37624379564950   -0.08432039082822    8.48442767357325
C         0.14301041003824    3.67756998169493    3.69826378406176
H        -0.21152967780813    3.87540408195086    2.67826170614014
C         1.59339385463335    3.20058349173171    3.67217803577031
H         1.86401062197098    2.89513124215545    4.68736447945955
H         1.69275991690874    2.32031356280367    3.03302398774666
C         2.54429674843536    4.29077043989221    3.19002788991743
H         2.29784310273226    4.55841119909019    2.15919309059396
H         3.57141482289273    3.91766790364008    3.20181366843406
C         2.42595984184214    5.52820008328308    4.07251855232911
H         2.71733556164509    5.27358431583230    5.09454180683699
H         3.09999132532047    6.31098238951173    3.71690123116789
C         0.98712112683669    6.03167897851651    4.06780073113253
H         0.71305284443535    6.32934878725615    3.05234285995364
H         0.89503855457467    6.91086724068503    4.71012208029233
C         0.03379766094757    4.94131539290129    4.54818210789478
H        -0.98941970977086    5.32195048145743    4.52719017573011
H         0.26914835303165    4.67612791720381    5.58357199550721
C        -3.92650284926584    1.40766141930055    5.31713025582043
H        -4.82365151986636    0.80451027100529    5.13219109573029
H        -4.12692209168303    2.07667903533924    6.17270460009343
C        -2.57075674305795    3.12966548433582    4.31413465065891
H        -2.76408431624580    3.75233428253634    5.20651723115798
H        -2.53912928219868    3.77816721815522    3.43172203664585
C        -1.04328629298365    1.18872126136684    3.02086449232868
H        -1.89307206367492    1.50920804772215    2.39439592279499
H        -0.12165180099318    1.29517279151121    2.44166618626112
C        -2.39624755214193   -0.53254140568647    4.06281603319993
H        -2.41325570052015   -1.61691909314734    4.20676173105654
H        -3.26644826637319   -0.23698780123750    3.45232145895819
C        -4.81215852590335    2.77206926909243    3.54584991492834
H        -5.18258440385294    3.59926058810518    4.17818628001590
H        -5.59482181083986    2.00736449260053    3.49997052087340
C        -4.54079729196962    3.27142277808077    2.15310488726664
C        -4.57287990384302    4.62712433844636    1.85488388712423
H        -4.81334996113598    5.33925107071352    2.63257793070935
C        -4.30350636824235    5.07408269578759    0.57286425048355
H        -4.33380540935464    6.13184094934179    0.35480446310595
C        -3.99435027279676    4.16721820290633   -0.42567253489780
H        -3.78373043174519    4.51444574647345   -1.42661023524950
C        -3.95921803341428    2.81316290260290   -0.13710346295188
H        -3.72207489115775    2.09861020062502   -0.91061230735110
C        -4.23053107378923    2.36801445926468    1.14345033745176
H        -4.20418932124409    1.31035317473755    1.36295369944070
C        -0.78733469274578   -1.11402547181709    2.35420759214308
H        -0.80540005171288   -2.12901018046834    2.76426643855545
H         0.24000944873669   -0.88470637476832    2.05254288667107
C        -1.68979909640908   -1.03766400022275    1.14615815161353
C        -1.35329373571932   -0.23673783378049    0.06148871628424
H        -0.41752600060327    0.30446168236966    0.06730254115286
C        -2.19180895052011   -0.13843439339822   -1.03436430117561
H        -1.90309381300029    0.47358015346670   -1.87726905373793
C        -3.39271703885030   -0.82697392909525   -1.05439608755055
H        -4.05152527374878   -0.74888636856451   -1.90713843576495
C        -3.74113813267661   -1.62450521010693    0.02206223200912
H        -4.67380854239478   -2.17014320073261    0.01029982631097
C        -2.89254200509432   -1.73439225320472    1.10942287472140
H        -3.16247799110700   -2.37968350842357    1.93333652757216
N        -3.61972425969142    2.15219952904823    4.11653662382006
N        -1.13852072017323   -0.19549986363259    3.43305209718774
P        -2.54216264945191    0.23486729408805    5.75210291300280
P        -0.89401313207134    2.32972534119560    4.48107498468153

