83
CSD_code = QICWIJ | q = 0 | S = 0 | Stoichiometry = C34H45CuN2S | MND = 2
Cu        0.56187311487105    3.97230632888861    1.82277822691895
S         1.23817189963908    2.70649121059663    3.47688031361214
N         0.59086148083445    4.33385053741873   -1.00615264754402
N         0.66712288413657    6.25055453188904   -0.01710638738517
C         0.53429422700687    4.93989000898682    0.17693213054469
C         0.77170683696186    5.25616405251198   -2.12553168357962
H        -0.08722443288401    5.19866897063139   -2.80240260257264
H         1.67020637010756    4.99525024046816   -2.69143707021198
C         0.88166382402671    6.61054916521423   -1.41840386617954
H         1.86759044468309    7.07169816001308   -1.53768312158137
H         0.12702785830013    7.32927362683657   -1.74997946342944
C         0.48474829048561    2.93051563623683   -1.20022246520261
C         1.64816018125161    2.15973394946913   -1.24528775198300
C         1.51995115300114    0.79352019337155   -1.45536624571074
H         2.40222228658942    0.17383074889931   -1.49130220204530
C         0.27499467277508    0.21338838090513   -1.59979323882660
H         0.19284840685618   -0.85190481035106   -1.75651683265063
C        -0.86736208157698    0.98674311997039   -1.52055770535801
H        -1.83408141647636    0.51555120397483   -1.60414338349960
C        -0.78349430793123    2.35751327736453   -1.32238039581288
C         3.01057165572945    2.77180769932000   -1.02393328340401
H         2.89843395735826    3.85069399132836   -0.87998520972830
C         3.92242343253376    2.54351700623231   -2.23187738112677
H         4.12046689896403    1.48452617936670   -2.37348575021088
H         4.87346869611455    3.05011915293908   -2.08259964406948
H         3.46352763226280    2.92806883316485   -3.14161233989276
C         3.63621396437128    2.20521873694740    0.25261997084183
H         2.97782234163806    2.36776924645303    1.10416011288046
H         4.58565458399568    2.69655999612425    0.45270293069324
H         3.81442755356253    1.13764937447338    0.15891077299300
C        -2.03257519252044    3.19155789680767   -1.16130057255462
H        -1.76301489583362    4.25122548485031   -1.20677667560760
C        -3.05897719157269    2.92320812258533   -2.26262028031962
H        -2.60499838233433    3.03230288976795   -3.24591014310554
H        -3.88252048499271    3.62938567305003   -2.18083133793573
H        -3.46864592893000    1.92029065925481   -2.18311580807429
C        -2.62660135271001    2.92456637604661    0.22424550295992
H        -2.92421419629776    1.88386054741140    0.32179110688998
H        -3.49697527193768    3.55336417151977    0.39632016346910
H        -1.88787274328370    3.13811991193212    0.99800433944527
C         0.70898135143435    7.21958349002569    1.01985963085138
C         1.91420058405182    7.46377304313219    1.68262682454400
C         1.92139995781642    8.41303051575085    2.69622652485699
H         2.83717135823259    8.61809808780291    3.22849114942110
C         0.76928760487478    9.09293920484461    3.03999142748751
H         0.79293995090896    9.82548580234215    3.83323915322606
C        -0.41613476916821    8.83214674292571    2.37951386477384
H        -1.31209603712104    9.35947341767369    2.66833845988820
C        -0.46652629622417    7.89377423887083    1.35828851137788
C         3.17830974170681    6.71406715204099    1.33568823948635
H         2.97826346804561    6.04287687386026    0.49512669757285
C         4.28818303788297    7.68159080253119    0.91618769334325
H         3.95300640778323    8.32551614944829    0.10440742140245
H         5.15933582432050    7.12420921754364    0.57915257965811
H         4.59041765456459    8.31230013485798    1.74781218948410
C         3.62215339928742    5.84571277108907    2.51438858906395
H         3.81883690240590    6.45125461513638    3.39501878965959
H         4.52881171911578    5.30300778757609    2.25815252353467
H         2.84911456474506    5.11672878240288    2.75858021230227
C        -1.77457028539874    7.57598152255840    0.67214594065276
H        -1.58144562436925    6.91412539716089   -0.17684490273623
C        -2.45779874984229    8.83734592953683    0.14091211662940
H        -2.78463477357942    9.47915327233950    0.95430687846222
H        -3.33210253826978    8.56727825334479   -0.44760276357727
H        -1.77713791126718    9.40554843760505   -0.49056719963699
C        -2.68567778639362    6.81850877105555    1.63988475936167
H        -2.20541069360026    5.89608390759713    1.95975716951473
H        -3.62681942787349    6.56865533632541    1.15467987041945
H        -2.89872175066836    7.42058275832486    2.51979402156197
C         0.06389411458450    3.09057327824324    4.84067754265732
H         0.27438977887418    2.34938649491126    5.61329032128214
H         0.29920921265410    4.08784702063130    5.21824560654864
C        -1.34587223037362    2.99735099149773    4.37029271071332
C        -1.88737492548758    1.76041393323856    4.03038752189115
H        -1.26937022733241    0.87839375876703    4.11843825983360
C        -3.18736172599264    1.66160119620035    3.57548232372519
H        -3.59505844004679    0.69446579013987    3.31701568287384
C        -3.97189369645408    2.79784045063278    3.45651407189531
H        -4.99222113776508    2.71984068563900    3.10914670232039
C        -3.44219336995445    4.03261265900101    3.78625577838910
H        -4.04951865386342    4.92275798482325    3.69966154195027
C        -2.13629694282007    4.13279913087826    4.23449662454220
H        -1.72646540823983    5.10088372683420    4.49290885714884

