74
CSD_code = QICXOQ | q = 0 | S = 0 | Stoichiometry = C35H30AuClN3O3P | MND = 2
Au        2.01427495630305   10.41279000570616   15.92373855391779
Cl        1.88473193624959   11.80846343231252   14.14727942276252
P         2.17673114864327    9.03515414764436   17.68623058206041
C         1.78456960295475    9.83644648399630   19.26516261080064
C         0.55760713810585    9.66297335871691   19.89461551399393
H        -0.18426790744627    9.00911159860974   19.45780743685571
C         0.28545778306754   10.32431407573050   21.07932622784846
H        -0.67474652670064   10.19646063363269   21.55434563177164
C         1.24616542793753   11.13461544165268   21.66335476178248
H         1.03491983740485   11.62726771087637   22.59999261752246
C         2.46829972178523   11.31700829571518   21.04429312009295
H         3.22242705764775   11.95842324215326   21.47470787596706
C         2.73583983433775   10.70212235910676   19.82590140507556
C         3.99776535102862   10.90060842438891   19.13103550467062
H         3.93271777963910   10.93848758178938   18.03022542342852
N         5.08291483257197   10.95902424665547   19.77837871076804
C         6.33667964574334   11.06714291059714   19.20596140500169
C         6.62752411588077   11.70677876560657   18.00478742724188
H         5.83253189096211   12.17041542403333   17.43923127645878
C         7.93446339224093   11.77727659739323   17.56145607456378
H         8.15721986361536   12.28189924403883   16.63376906042126
C         8.95575010006953   11.20613359357115   18.30553807994177
H         9.97382501841438   11.26362119712446   17.95185868604882
C         8.68797377910243   10.56533189965269   19.50350443058853
H         9.47783482474254   10.12256150958854   20.08742060844635
C         7.38187999805388   10.49463210323350   19.96195345291364
N         6.98716676873404    9.85533221031783   21.13233592856242
H         5.97943046623632    9.91242900174260   21.26445764751336
C         7.72121483871428    9.21531330070993   22.06758009856449
O         8.92413186977882    9.08807619869714   22.06211868379370
C         6.87173538344840    8.61430379301086   23.20076208382197
H         7.01024667456569    7.52875031955692   23.16026305267328
H         7.27910163080126    8.97061926747959   24.15100350571690
N         5.45415861787726    8.87075527577236   23.12084935339931
H         5.08420861802823    9.74562788902832   23.45649908162623
C         4.57762591287041    7.88270536674653   22.81466775466648
O         4.89107853035335    6.76639015285932   22.48539409893506
O         3.30322639876986    8.32236801100852   22.90729147666849
C         2.31225856378805    7.34010026989610   22.61142031738069
H         2.57776777615980    6.40738753159513   23.12876596755021
H         2.32008964749159    7.12745670440431   21.53541747821757
C         0.94928413742387    7.80236751825634   23.03421061203821
C         0.78113570448071    8.66990975332953   24.10344595615566
H         1.64995823749204    9.04186362754724   24.62401476412919
C        -0.48862587220868    9.05837239380914   24.49336805782494
H        -0.61068808330851    9.73652865587584   25.32492966315709
C        -1.60048736711971    8.57410726248950   23.82597401947465
H        -2.59105872995328    8.87415823038947   24.13368084199884
C        -1.43785801732250    7.70309518825480   22.76113366050530
H        -2.30149182182299    7.32275902642610   22.23595468585969
C        -0.16895112597886    7.32291806980565   22.36329166828024
H        -0.04351715513603    6.64870237268458   21.52776455859209
C         1.03223642229584    7.62618900244787   17.67075305181239
C         1.27255580586323    6.46012106714781   18.39082079927743
H         2.18944939706483    6.34755061165251   18.95192985164944
C         0.33943200250545    5.43977331209348   18.37187189664141
H         0.52540135437744    4.53369277720070   18.92950039823542
C        -0.82858880047201    5.57503857125930   17.63779595237435
H        -1.55246005320600    4.77424215858022   17.62678018953865
C        -1.06392402859353    6.73056302948583   16.91032004481680
H        -1.96875756289501    6.83219160190074   16.33047213869390
C        -0.13437181689610    7.75425983018794   16.92257278526688
H        -0.29952910679069    8.65999134665903   16.35194401572572
C         3.81635238917970    8.29615042678504   17.93710917101063
C         4.64803275513257    8.19144205618475   16.82629469739594
H         4.28595138646382    8.52283000491014   15.86056738150798
C         5.92872730695029    7.68868563845216   16.96511399214600
H         6.57517375347171    7.62207884878957   16.10316216204323
C         6.38119197089857    7.27848125497455   18.20876358677814
H         7.38257653449729    6.89142336438660   18.31872381610325
C         5.55349647389804    7.37197991320894   19.31617280300113
H         5.89433409692577    7.03894178333301   20.28473575159994
C         4.27829164887033    7.88860030024884   19.18506871310875
H         3.64689586401195    7.99801142481483   20.05565588305048

