71
CSD_code = QICYEH | q = 0 | S = 0 | Stoichiometry = C35H28N3O3PPt | MND = 4
Pt       11.69474684598587    9.62093305094155    9.11217384217089
P         9.95813368428197    8.66214963730265   10.19942371905154
N        10.73835867688734   11.17891130339131    8.39515427663583
N        13.25524724789765   10.39619446412788    8.22063247881523
N        13.00480511126086    8.25617695986078    9.61171340259851
C         8.39692096935757    9.50203524232486    9.64698379237824
C         7.19795634137199    8.93253886220498   10.06468119371841
H         7.23352426460784    8.02382373721447   10.64810168572430
C         5.96851035042058    9.46960254701939    9.73734706328214
H         5.05967835254502    8.99757101655996   10.07916762990649
C         5.91572818102316   10.61534679656699    8.95805965112880
H         4.96535273377810   11.05094278301177    8.68889774341578
C         7.08730042574567   11.18904021063179    8.52062359960984
H         7.03787744464266   12.07624269755789    7.90463290484281
C         8.35006576838625   10.65851104572340    8.84567599923817
C         9.46384853533978   11.38653975037497    8.28579093444573
H         9.14013726068141   12.23386517102029    7.68403502510352
C        11.65510265069420   12.07279665890532    7.79983230386442
C        11.33205555417623   13.35893528241411    7.36079136735614
H        10.34507793134997   13.76712869759639    7.51751413555128
C        12.28294678047459   14.15473204008953    6.75658455445556
H        12.01700736874585   15.14888975880521    6.43122769034515
C        13.57889591775975   13.68473384552307    6.57566359158075
H        14.31415763245626   14.31082076050538    6.09299064935041
C        13.94019943758247   12.43708475053380    7.03186168313920
H        14.94836701295720   12.07129958619872    6.92523759853766
C        12.99849299750254   11.62288576798901    7.67092112482907
C        14.42535150311727    9.71608031574093    8.22649652996688
O        15.47166563654606   10.06103978238022    7.70566322678405
C        14.31106109931366    8.38731229754421    8.99207912674895
H        14.49680349441818    7.56646890233325    8.28568751403303
H        15.10641309536368    8.35098577564861    9.74721255978119
C        12.74429650677767    7.33815810836268   10.51326143931842
O        11.65732055490554    7.27311224979034   11.11316574897359
O        13.73314528719075    6.45359225290140   10.76222991305908
C        13.42768883147355    5.44768935977218   11.71525670275180
H        12.46568526067067    4.98584055609588   11.45513556787940
H        13.30813471421038    5.91295040987796   12.70449928362640
C        14.51519039783067    4.41022916685528   11.75660116837915
C        14.32251280419274    3.26271843906681   12.51758801153260
H        13.39590273443154    3.13327233191628   13.05874120468376
C        15.30603594345567    2.29353682438585   12.58347431063626
H        15.14660093051223    1.40556284512151   13.17758189065847
C        16.49254543137614    2.45896742506629   11.88757492781867
H        17.26005193429964    1.70083864676601   11.93791645844135
C        16.68836353522523    3.59858283512339   11.12811760558772
H        17.61092926566251    3.73345538156332   10.58287292379836
C        15.70529950199114    4.57168016640463   11.06319491376921
H        15.85465020420581    5.46039328947003   10.47106822413917
C         9.38617088729151    6.96564619424628    9.88880857318952
C         9.19828846773127    5.99236948771681   10.86005112375939
H         9.40281242169860    6.22467944812829   11.89345509661988
C         8.79353797154775    4.72278174336299   10.48668644732250
H         8.64637272925221    3.96302317187668   11.24112622952791
C         8.58665249617184    4.41743084278380    9.15089850292187
H         8.27607420045110    3.42266200752639    8.86674602088640
C         8.79135137806794    5.38345359378772    8.17869362737837
H         8.64468861028314    5.14200205210711    7.13602954698309
C         9.18943618797454    6.65493665806978    8.54745171418162
H         9.36331983116722    7.42299391944024    7.80144731482365
C         9.90597403343971    9.16694931793491   11.94421152310972
C        10.90377503766597   10.07051134996794   12.30188723011709
H        11.63997495484105   10.36124028428902   11.54754866755931
C        10.97185417539112   10.57156296822861   13.58716491247434
H        11.75167252009789   11.26815568252544   13.85822313724481
C        10.03808920106870   10.17270322395852   14.53087015858443
H        10.08868176173732   10.55761721170161   15.53874796940054
C         9.04114180993038    9.27867779306023   14.17985103861917
H         8.31321943197262    8.96789434879996   14.91546544576274
C         8.96784347248436    8.77846389870433   12.89041648292709
H         8.17942427464933    8.08724501519494   12.63598034316920

