69
CSD_code = QICZIN | q = 0 | S = 0 | Stoichiometry = C33H27BN3PPdS3 | MND = 5
Pd        1.44343585376597    5.38218085023034   12.32747545909988
P         0.23638427056336    3.35859597538520   12.41738763572962
S         0.39170298434160    6.44694096685311   10.29204077301573
S         3.92101966184310    4.55326421456710   11.94805998529498
S         1.26128566762222    6.21623986035412   14.69114856467341
B         2.48457675843823    7.09986845026553   12.17691630366644
N         1.48700264227799    8.25621131165194   11.89014206759452
N         3.48611489867817    6.98971575804233   10.98935982425665
N         3.28855589071872    7.41146184772882   13.47453999910027
C         0.53961725662230    8.00168915319522   10.93493612479234
C        -0.30418110354011    9.04872653026536   10.51012550661953
H        -1.01255679467431    8.82587714822764    9.72908316654064
C        -0.24658252232002   10.27299535122740   11.11483565005566
H        -0.91363497823934   11.06772960745322   10.81887909630008
C         0.69072310757392   10.48440549152052   12.14036582405545
H         0.75353365615792   11.43091647066468   12.65020841015077
C         1.54015153612889    9.46656238833748   12.47501897841437
H         2.29371927244624    9.59696542191044   13.23828651555230
C         4.20284942903666    5.82721793304384   10.88436273638315
C         5.18716734992499    5.71894560903054    9.87629061809658
H         5.74840334357766    4.79963425789159    9.83694753081386
C         5.37719720082537    6.72660624672190    8.97664197978780
H         6.10797112078717    6.63604113627297    8.18791636018989
C         4.60060252279332    7.89425702854028    9.08806854583898
H         4.71797093465455    8.70956488645842    8.39422104039556
C         3.69335661172800    7.98403607038052   10.10451309463424
H         3.09481964935464    8.87455986380561   10.23497183703805
C         2.72062037965574    7.05686643972172   14.66455230577983
C         3.37433988288970    7.40579958741568   15.86789316850072
H         2.88981347007538    7.12824678147623   16.78970025097594
C         4.58501642870730    8.03417079741436   15.84200426198755
H         5.10139442864016    8.28032218744877   16.75689355095361
C         5.16080512448078    8.35652477029604   14.59919108210034
H         6.11814711955700    8.84619325187610   14.53998263343034
C         4.47801840509840    8.04177357340902   13.45930394024354
H         4.87534020388867    8.28797989342318   12.48489795497040
C         0.95643815725994    1.90616643432905   13.24475445106109
C         1.84648583892109    2.17549133155945   14.27983052709502
H         2.07572303886222    3.20946867476813   14.51988609031310
C         2.43591757533389    1.13779722548595   14.97656480356152
H         3.12739377273760    1.34775270361512   15.77959782764097
C         2.14453839846307   -0.17333550564587   14.63562809752796
H         2.60637076294126   -0.98726193515599   15.17583323369551
C         1.27011133299515   -0.44487619430476   13.59545037815320
H         1.05283873802610   -1.46904812654244   13.32650126492656
C         0.67554431124158    0.59032561665215   12.89643216754989
H         0.00223362421009    0.38006245872581   12.07632568400525
C        -1.37338106009281    3.55256844089384   13.24575173054750
C        -2.05425757956287    2.53689637447346   13.90555544028495
H        -1.62599891243671    1.54537983589134   13.95955961059541
C        -3.27442899968150    2.80433633350999   14.50070012248924
H        -3.80492878462861    2.01576790273141   15.01553664966989
C        -3.81654051547479    4.07813821640136   14.44198544642981
H        -4.76919268516685    4.27932981889133   14.91048592508511
C        -3.13482283943926    5.09614398357156   13.79420110899768
H        -3.55340348051432    6.09166569619991   13.75940285210205
C        -1.91385107010625    4.83494763376501   13.20276804060134
H        -1.35429803765077    5.62699170390998   12.70560449537479
C        -0.21263943004833    2.69315577712352   10.78325539187533
C        -1.45041056400524    2.15541899515272   10.45530965617279
H        -2.23415708672834    2.10761122855716   11.19903648794404
C        -1.67715410933956    1.69194341541936    9.17102172131374
H        -2.64039980088186    1.27429162521470    8.91381204925402
C        -0.67744919544848    1.76456435904914    8.21507078315658
H        -0.86284726617563    1.40266292183240    7.21395838572815
C         0.55565210203629    2.31016683626695    8.53685246690496
H         1.33077870477196    2.37648156858291    7.78704525755014
C         0.78528929469343    2.77811105892558    9.81573914762582
H         1.73874410070517    3.22639647773961   10.08307992772121

