60
CSD_code = QICZEK | q = 0 | S = 0 | Stoichiometry = C22H31Cl2N2ORhS | MND = 8
Rh        1.92778552685892   23.70442488519874   11.47253497010217
S         2.76457444233415   21.44739605412357   11.28963472578920
Cl        3.55231181651262   24.01990539705241   13.06972593886870
Cl        3.45554641079285   24.46732664640703    9.85255128045776
N         2.96463161953479   19.64993178039179    9.38853648958402
N         2.53580186078716   21.85995685726730    8.69459277953365
H         2.85626649630340   22.82506349249342    8.95555988999705
C        -0.17434736330447   23.16555235734479   11.09034126067572
C         0.06021926546422   23.36115476711566   12.50752426023621
C         2.73821472061416   20.92936187348959    9.68035595480593
C         0.39479454634968   24.73387520925456   12.71563113369560
C         0.51498758781852   25.34959146875261   11.43222269539452
C         0.10500584758979   24.38585848613715   10.43094161480979
C         1.68613466329742   21.73993161192575    7.61999107765624
C         0.56573853643415   25.39862124792626   14.04157772556787
H        -0.14061971994466   24.98413134732921   14.75829284363260
H         1.57558669134759   25.23759791052753   14.42337270402381
H         0.39940551567925   26.46958150955000   13.95353341645440
C        -0.76354935566191   21.93234564951367   10.48461286335799
H        -0.45991947676973   21.04308737512210   11.03315046098423
H        -1.85235994590790   22.00005686959837   10.52610976695687
H        -0.47060565324072   21.80795965742549    9.44462233151573
C         0.76365949159811   26.79983692741031   11.16789203428489
H         1.22266174136692   26.93903271206528   10.19134081400606
H        -0.18404373133586   27.34261725345344   11.18275680570380
H         1.42138352823248   27.22408658476779   11.92326725093928
C        -0.24828240631112   22.38040239063210   13.59278631505939
H         0.41146438162006   22.53563396961925   14.44338964901125
H        -1.28125592335656   22.50926289452995   13.92285606846076
H        -0.12442639764000   21.35783311970010   13.24427619441560
O         0.95737471886080   20.77525205260517    7.46848107838104
C         1.70004244334926   22.88515652729197    6.67988631807537
C         3.31758735738226   19.19160547184737    8.05292187617040
H         2.47237012181519   19.34656191344936    7.37609006151666
H         3.49551349348818   18.11805669221726    8.12440238179498
C        -0.11480286389552   24.71285806534787    8.98918508350413
H         0.78708721671218   25.12598823647789    8.53829811165247
H        -0.40723790215091   23.83038942960392    8.42679725235461
H        -0.90717995477847   25.45783064002419    8.90500591562554
C         2.75575098663682   23.78990113472763    6.59035466859112
H         3.62125609974026   23.70182593007128    7.22681625189288
C         0.60402600746782   23.02202623557599    5.82793738037652
H        -0.19719149551412   22.30078691917092    5.89765433321966
C         3.06391508848161   18.67458439680269   10.45727180329620
H         2.67531437098781   17.72520743179919   10.08036780534075
H         2.43269474110097   19.00781151503070   11.28323321158285
C         4.57038916452634   19.87050598012638    7.50545241908068
H         4.84279199105803   19.40780626367837    6.56059436077247
H         4.40801513374727   20.93018787988622    7.33193873581001
H         5.39920170355801   19.75972263716973    8.20046376424559
C         2.69385394698689   24.82464755782006    5.67416662049020
H         3.51221705410148   25.52554562528895    5.61016216496845
C         0.54710321354219   24.06097290272358    4.92043762732602
H        -0.30936827650442   24.16456299556858    4.27100868897648
C         4.49593385213705   18.50477353877041   10.95407712469868
H         4.51604956728144   17.78911046588410   11.77068081179830
H         5.14366553332373   18.14244511390849   10.15972118404782
H         4.87659065951522   19.45487421409072   11.31803265008417
C         1.59268995565335   24.96752351320603    4.84548860773074
H         1.55128135446087   25.78216041381540    4.13759039050870

