47
CSD_code = QIDBOU | q = 1 | S = 0 | Stoichiometry = C20H22CuN4(1+) | MND = 4
Cu        3.56097606733553    3.23806888177814    3.73504549277805
N         1.95035183990525    4.48004198991942    2.86173194051619
N         3.47367321259078    4.65988986009343    5.15523893148606
N         4.46127996974618    3.74750027228216    2.00780352105553
N         2.07453850740581    1.86705244697928    3.68971866830355
C         2.21227480040999    5.79578556768431    3.40908462586133
C         2.72138916568994    5.71341322879759    4.82984782991163
C         2.44785835300597    6.71930342311054    5.74667057015513
C         2.96859646913418    6.62887447813307    7.02745220639354
C         3.74809921374891    5.52923482106833    7.35399835248376
C         3.97142092948140    4.56931550591546    6.38360258488031
C         2.17610527490967    4.35952514912601    1.43534602121650
C         3.65001688731809    4.30221963335641    1.10530864269059
C         4.13153151996428    4.77626749813891   -0.10447648661635
C         5.48685584221310    4.65993837553665   -0.37752261205520
C         6.31530766689716    4.08746847756002    0.57055490197645
C         5.76687946476778    3.64190869823065    1.76861683682730
C         6.60561806600264    3.02592892421615    2.83644318486899
C         0.72770640776189    3.86074676414228    3.33309390457027
C         0.86401105282941    2.35727710251472    3.41305413841847
C        -0.23199878265503    1.52698427032759    3.24519710506178
C        -0.05917676608149    0.15610647499275    3.37397742965686
C         1.20112800261772   -0.33670075829397    3.65812235690298
C         2.25943073788222    0.55392482091565    3.80824890864461
C         3.64251382144330    0.08404233103418    4.10551498469214
H         3.00002532734121    6.26089679885363    2.80653050011409
H         1.32932297357051    6.45087595683160    3.36802789301902
H         1.83770432116354    7.56098389591420    5.45820050315767
H         2.76794964853048    7.39962582884015    7.75510000079154
H         4.17202060123678    5.41797513399175    8.33825699824725
H         4.57053093862405    3.69415133756014    6.59101635021142
H         1.73039925311884    3.41542268098414    1.10410066389484
H         1.70038056953045    5.17179788556761    0.86567150632861
H         3.46012712847644    5.22510924347679   -0.81897126236060
H         5.88733960488928    5.01746818069804   -1.31320679599475
H         7.37394426963997    3.98687406059838    0.39399977296530
H         6.87350648694381    2.00667802702710    2.56090822358362
H         7.52587070794214    3.58721589204136    2.97718569289448
H         6.04355684341206    3.00220643065382    3.77120138123416
H         0.53325451300488    4.22546715693558    4.34749996784031
H        -0.14141567447013    4.12269394645585    2.71161414038181
H        -1.20113616048254    1.94357589716210    3.02160391530527
H        -0.89621340139541   -0.51310323508032    3.25035841336441
H         1.37260844249238   -1.39592047566981    3.76167820942314
H         3.66991719488739   -0.43545144509305    5.06192326954703
H         3.98128606950901   -0.61070224957760    3.33917408567591
H         4.31593261771099    0.94154081426932    4.14055252969456

