93
CSD_code = QIDCAJ | q = 0 | S = 0 | Stoichiometry = C46H44P2Ru | MND = 8
Ru        6.80805391458779   32.29947313180818    3.28838773084296
P         4.61805665916051   31.88449069780748    3.52055967025275
C         3.71023282601182   32.37775122911875    5.03057367977707
C         4.44376835629396   32.86634982180149    6.10269869976412
H         5.51618854711336   32.97117532886688    5.98581022149283
C         3.81700736502295   33.19799070047279    7.29091277303664
H         4.39431210742104   33.57675385904273    8.12287413193058
C         2.44625146836285   33.04135543981850    7.40992752321656
H         1.95078852406246   33.29992849312314    8.33437398325168
C         1.70753903517083   32.55222885985425    6.34281294435465
H         0.63829332386292   32.43025565189993    6.43974771459350
C         2.33369063109914   32.21888615238180    5.15618964251033
H         1.75935101844760   31.84221872270918    4.32025782279818
C         3.44821261368054   32.39298961980418    2.22704614080657
C         3.23101386772829   31.63968639735807    1.07771537132450
H         3.69093267980503   30.66948113422183    0.97185891523478
C         2.43641029093987   32.14012595416285    0.06193567439199
H         2.27048410042493   31.54819593977685   -0.82627604523890
C         1.86133251214561   33.39505987219047    0.17507912321154
H         1.24433729664965   33.78303065442027   -0.62215606107663
C         2.08342473288017   34.15621343558087    1.31177957124071
H         1.64011237392891   35.13796682084705    1.40189883589539
C         2.87664546608044   33.66044026338953    2.32845335883306
H         3.05155593446241   34.24887981768746    3.22068370574459
C         4.40727401263705   30.04593057411119    3.65215024512286
H         3.37439393272398   29.78961312373174    3.90979106059411
H         4.66347986865344   29.62049655339132    2.67690925624594
C         5.39284074438334   29.54874998787374    4.70461718417790
H         5.50366453479104   28.46176157764251    4.65700178019399
H         5.03235355400076   29.82209089060527    5.70071136330835
P         7.04972566876664   30.37354043155193    4.43128634006217
C         7.77760605114885   30.40439909640801    6.10900667303252
C         7.05205027203814   30.78105601850772    7.23549252509154
H         5.98943447439561   30.96340563786208    7.16376173371152
C         7.68061980328270   30.92831046688534    8.45893609423631
H         7.10264888725066   31.21228052739825    9.32686478409263
C         9.04501148217034   30.71982731255670    8.57385855353426
H         9.53410722650648   30.84012792999507    9.52923609167585
C         9.77989722049973   30.36141260581578    7.45532708502872
H        10.84580211369230   30.20260422684236    7.53616361401434
C         9.15278888378789   30.20921193583895    6.23292573481601
H         9.72711406048558   29.92540763560227    5.36137638372999
C         8.02118876423598   28.98733396734146    3.73452696858898
C         8.73471595753157   29.18430196755533    2.56022827159736
H         8.67751813582975   30.14928593216805    2.07282252733365
C         9.48316620329506   28.15469300434475    2.01716111684323
H        10.02856238080167   28.31103104915851    1.09784458766597
C         9.52935548611021   26.92510323103561    2.65158789234008
H        10.11027656740533   26.11834948253864    2.22877916860484
C         8.83447105379041   26.72845283231327    3.83552704860360
H         8.88042840180869   25.77163910100547    4.33592299434475
C         8.08541629360324   27.75444899191518    4.37896381546342
H         7.56028992501962   27.60734360921612    5.31407642908471
C         6.47604599804693   31.20210181844549    1.64852181866403
C         6.38798569332036   30.66607395110640    0.55553954954378
C         6.29508229131794   30.03263560887403   -0.63611345948131
C         6.22351072273277   29.46317026446006   -1.70691019178406
C         6.15007612052745   28.79019739109751   -2.93898497273172
C         6.80351884627122   27.56603097923235   -3.11461790750950
H         7.36182744710755   27.14355774163112   -2.29062547620654
C         6.73454476525086   26.90922714683373   -4.32638125563245
H         7.24357586125131   25.96389405190499   -4.45421568047511
C         6.01713550713347   27.45532290447225   -5.37959741100560
H         5.96634692093690   26.93797034911019   -6.32673033327841
C         5.36541941289812   28.66753170470502   -5.21336900769517
H         4.80525134259171   29.09471915465522   -6.03361065218266
C         5.42779897246401   29.33347319048749   -4.00603135796382
H         4.92177250641196   30.27979023512777   -3.87356955012906
C         7.14347780878294   34.21667733159664    2.27765240954552
C         6.87968131883867   34.51433815786467    3.66060972546665
C         7.88626440807783   33.89730641764319    4.44919511624222
C         8.81176809325945   33.24679266420024    3.55067090516598
C         8.37370260200650   33.48101287942975    2.21740682365066
C         6.46214000696248   34.85009322812614    1.09940610216485
H         5.39157848652361   34.95928490098526    1.27190371609919
H         6.59636380760696   34.24158280213428    0.20694901671575
H         6.88373675500866   35.84063568047803    0.90901820893545
C         5.87004968062768   35.51521354657506    4.13937998473923
H         6.35105371578846   36.49265863063930    4.23025306572310
H         5.45476619646072   35.25193697721289    5.11126194646403
H         5.04948098974066   35.60878952412216    3.43059073315635
C         8.16187094799995   34.16008254583741    5.90250857512309
H         8.97829595426954   34.88114011737446    5.99449254582183
H         8.45617785656737   33.25251055714506    6.43091107867123
H         7.28856185349217   34.57819408360041    6.40010391707334
C        10.16282822686352   32.72827842328845    3.95069685075650
H        10.46716176323064   31.88257864065032    3.33491662345859
H        10.16612366121032   32.41281389806221    4.99243116894636
H        10.90637851793335   33.52080476031114    3.83155683468452
C         9.14314475036918   33.18776016437116    0.96343206422625
H         9.57394986827300   34.11406146265738    0.57629337833291
H         8.49929837777735   32.76397173335982    0.19323618309033
H         9.95375433460397   32.48774668138392    1.15581646136748

