85
CSD_code = QIDCIQ | q = 0 | S = 0 | Stoichiometry = C38H36N6O4Pd | MND = 4
Pd        6.30414297689450    1.67005767199103    6.09325468301929
O         6.96316256441694   -0.49668301385434    0.71935034842547
O         6.42429281126495    5.83957570010605    6.37293604216674
N         3.22554638016003    1.81395966415494    5.39835432524729
N         4.04796670728342    3.38752540503365    6.59869474658820
N         6.77052970324752    3.64890533650005    5.75030366558779
C         4.36518739118084    2.23858944568258    5.97796297281040
C         2.20891100069641    2.69484015939946    5.65605316228529
H         1.21401214392827    2.54756749320884    5.28910722926327
C         2.73010797300161    3.69178892215843    6.41054006904127
H         2.27450377575127    4.57161160064466    6.81582780688327
C         3.05531857762151    0.57848805013353    4.67548189813328
H         2.09792832163516    0.63501953416163    4.14306744090864
H         2.99498124788222   -0.25085319597703    5.39245049219659
C         4.15460793040212    0.29354096173370    3.68138288340056
C         4.87223148853936    1.31087361365453    3.05563152700722
H         4.68921251625378    2.35000577173515    3.30139942524862
C         5.79002785236509    1.01017207351053    2.06600246171162
H         6.33572562253191    1.79165735020475    1.56043384673550
C         6.02697608573644   -0.31360856626826    1.69085549677618
C         5.31694364418714   -1.33141143121372    2.32028754124062
H         5.47433338690662   -2.36598120931809    2.06294020685932
C         4.39272296821849   -1.02037647230959    3.30147934391448
H         3.84898014294057   -1.82140523571986    3.77853118565929
C         7.23707548747505   -1.80832195400717    0.28965990301304
H         7.61496315896012   -2.42933262947802    1.10815863263395
H         8.00627105110801   -1.71282001608236   -0.47509186670066
H         6.35147755698173   -2.28166946544559   -0.14578116607713
C         5.00860069230233    4.16988382283132    7.32438330940194
H         5.42732556356805    3.57667363624714    8.14776794013253
H         4.52411218367659    5.06183490085068    7.72636689238670
C         6.18085284606834    4.63905087908341    6.41141862663688
C         7.82344476918234    3.87673260504893    4.86738794112893
C         8.06330590846073    2.90844468488183    3.88391376178266
H         7.37065925216470    2.07012689107673    3.80582245448910
C         9.12749804571996    3.01985772477626    3.01345828271959
H         9.28818869670977    2.25720605111984    2.26382418175903
C         9.98394701347510    4.10660854312698    3.09561501023924
H        10.82088368212483    4.19508739992381    2.41881634745287
C         9.74544695242530    5.08358252279915    4.04713116714531
H        10.40036255765875    5.94111961639241    4.11227385358366
C         8.68118356914490    4.98067316351009    4.92431379010087
H         8.50158022515214    5.75669170094777    5.65000189654988
O         5.64963787552174    3.84867579895431   11.46388547782217
O         6.18110683992165   -2.49935272917316    5.81316872402721
N         9.38315068564729    1.52507369135288    6.78752244020257
N         8.55946458005422   -0.04870514193407    5.58834590165383
N         5.83707389129081   -0.30854609675527    6.43650906131710
C         8.24309140919581    1.10087414215895    6.20839997334586
C        10.39911905119238    0.64326738135815    6.53033299962427
H        11.39416528131743    0.79007352249304    6.89706450669474
C         9.87711196966350   -0.35382221604862    5.77661017664292
H        10.33200683978119   -1.23428771685951    5.37192089605073
C         9.55482820094063    2.76141538307063    7.50855500142119
H        10.51216169813464    2.70452789969026    8.04104028001285
H         9.61617526182760    3.58957584002684    6.79029757542008
C         8.45599490915114    3.04942485511632    8.50223881459385
C         7.73705431345210    2.03415042150066    9.12979150597448
H         7.91858642279675    0.99435425739393    8.88567720439391
C         6.81994827352348    2.33784281591685   10.11916907729984
H         6.27330229454822    1.55799999590242   10.62626219062655
C         6.58507266357639    3.66259259778927   10.49222759597793
C         7.29624974996793    4.67833881542027    9.86078344000586
H         7.14033171961882    5.71357004416598   10.11633684229620
C         8.21974214278704    4.36432119253274    8.87989255876737
H         8.76449376079540    5.16375184735341    8.40131284619117
C         5.37810828391812    5.16145961839243   11.89162339487485
H         5.00063892280245    5.78172104609816   11.07236850701110
H         4.60931831068017    5.06844310040688   12.65708708778406
H         6.26477794210678    5.63410701480082   12.32564601452992
C         7.59856585180842   -0.83062902003663    4.86252622945175
H         7.18038920905180   -0.23726624227278    4.03896155727764
H         8.08267838992166   -1.72287943387682    4.46074844429039
C         6.42576235496940   -1.29906214202582    5.77512325444377
C         4.78397903820380   -0.53555862419520    7.31944370927420
C         4.54559288746191    0.43245707054374    8.30354039039815
H         5.23942234145146    1.26977495583367    8.38197725488461
C         3.48130870984907    0.32198055440306    9.17399774825936
H         3.32154624520034    1.08450063922784    9.92396650834469
C         2.62335778982780   -0.76354163104494    9.09122280889343
H         1.78621130235934   -0.85115605158655    9.76787633003896
C         2.86045862615233   -1.74030904212039    8.13915548523744
H         2.20430662076736   -2.59686476898046    8.07350365866313
C         3.92480305291053   -1.63834303097111    7.26195343989419
H         4.10337186043821   -2.41424032099322    6.53586332661973

