79
CSD_code = QIDCUD | q = 0 | S = 0 | Stoichiometry = C32H34BN10PRu | MND = 6
Ru        6.27980917822862    0.26718615312453    8.34919280339013
P         5.66313614136893   -0.68373224699169   10.36787037048735
N         7.40233695662728    1.73012698283540    9.26253450155961
N         7.27974955657904    3.00184616178280    8.87527458217327
N         6.84155466601833    1.21404766258076    6.61718633019584
N         6.76396299582620    2.54300806747882    6.53011761707291
N         4.68096042312469    1.58912559990477    8.37533463572205
N         4.91981839938289    2.87969550331018    8.13484189870366
N         8.04547085335509   -0.81494346314626    8.24735085111820
N         8.31590372840561   -1.68646554952150    7.51946341498448
N         8.68662721545845   -2.54592806198038    6.86716400595225
N         5.31191939757831   -2.06325982975662    6.64777951999969
C         8.38437687853178    1.67063320850940   10.14933645638728
H         8.67869817802463    0.74066117729794   10.59623500145243
C         8.17776926878837    3.76337886148499    9.52000311785323
H         8.23713352107523    4.81861281345045    9.34532158950385
C         8.90977909517070    2.94729955097242   10.35432382381519
H         9.70731020300387    3.22562219949841   11.01188192978260
C         7.30221289872847    0.75468456156452    5.46292651076277
H         7.45540928709826   -0.29520434375238    5.29546519186476
C         7.53256138927508    1.82318014217727    4.59552379468095
H         7.90565804232857    1.77996558970233    3.59327273097459
C         7.17670266059886    2.94171816020473    5.31735665476084
H         7.19166534915112    3.97883391846192    5.04986319377420
C         3.38745336092715    1.46398260263407    8.63687067430170
H         2.94728326187221    0.51192832718166    8.86548696958075
C         2.76730868406019    2.71085077678159    8.56952945686870
H         1.73379514527567    2.93513586777045    8.73391566738684
C         3.78244510320582    3.58345885147978    8.24568715678833
H         3.76782756479387    4.64256070947510    8.08761998274614
C         4.51121473657470    0.33856951190113   11.35834762489744
C         4.83647966641317    1.68490940427588   11.51516662632128
H         5.76321207154386    2.05756173800476   11.09942171817733
C         3.99320357435977    2.53982365017928   12.19713202100185
H         4.25643821710911    3.58167183434034   12.30960292140907
C         2.80683916298358    2.06003561334495   12.72944151773283
H         2.14060253448112    2.72762966189679   13.25549731686085
C         2.47955005835924    0.72304562497848   12.58543186727459
H         1.55798592528085    0.34477672133366   13.00370725153554
C         3.32515644310565   -0.13648088336742   11.90445621987916
H         3.05769469471284   -1.17778891279645   11.79730443283006
C         6.99174347746797   -1.01559753863430   11.57509372304730
C         7.08923523134663   -0.40440539830493   12.81940880320055
H         6.32563656829073    0.28574588909091   13.14895743794632
C         8.16908491476669   -0.68020102586476   13.64185893652838
H         8.24008689445183   -0.20181906661232   14.60810934392368
C         9.15488311497659   -1.56122017192851   13.23115295079342
H         9.99690369558632   -1.76812898619413   13.87522727953586
C         9.06103989565272   -2.17629579283684   11.99160443350867
H         9.82889800380238   -2.86289069805564   11.66710443518553
C         7.98670560523114   -1.90460735109630   11.16690555722845
H         7.90801878897249   -2.36670345837767   10.19185174708652
C         4.78738058124831   -2.29323609544041   10.37538916961810
C         5.09799890393796   -3.33732402549862   11.24005776801153
H         5.90737878468696   -3.23425301299563   11.94744687173832
C         4.37183261823107   -4.51570740284180   11.20048591894213
H         4.62725542880581   -5.32257925143559   11.87168023878023
C         3.31960101603655   -4.66132644170302   10.31312254437029
H         2.75350941543639   -5.58067426986298   10.28803735238370
C         2.99529011363176   -3.62095542068639    9.45650947062939
H         2.16798504214173   -3.72647532340636    8.76888771222533
C         3.72823754796564   -2.44956794695931    9.48351972670464
H         3.49024281915816   -1.64157399526593    8.80471659149972
C         5.50228079944870   -1.13261035886419    7.32990134388440
C         5.26484045604198   -3.27972439443483    5.93277308704047
C         3.81588302534993   -3.53594694226648    5.50997561074001
H         3.17704026032967   -3.61449538248555    6.38650757154076
H         3.75389853327969   -4.46345924669368    4.94712017681847
H         3.45306364145637   -2.72223961639432    4.88548296421578
C         5.77755609405875   -4.38713479791671    6.85842838887089
H         6.81229706920371   -4.18364423057710    7.12661414969308
H         5.72841712240411   -5.34582081478623    6.34898463723925
H         5.18101363176493   -4.43478380203379    7.76734293736917
C         6.18266618481780   -3.14595998241630    4.71422909676821
H         7.20497557856131   -2.97425909030708    5.04859643007223
H         5.86660867587823   -2.31606164756637    4.08511834703763
H         6.15573219288335   -4.06146692490118    4.12939763119783
B         6.31811981239586    3.37453591827752    7.74223248837586
H         6.32594197159098    4.53430417976056    7.51442717364102

