60
CSD_code = QIDDEO | q = 0 | S = 0 | Stoichiometry = C20H28BN9RuS | MND = 6
Ru        5.92140018316830    0.53090212224928    4.18202203446020
S         6.65305597057004   -3.31018050545237    6.74228498056832
N         6.35790027832943    2.32331536858883    3.28897440968137
N         7.59451733595596    2.81778638915474    3.37980590910948
N         7.02456139505670    1.22125613693686    5.77738360801900
N         8.18311025697888    1.85257545230387    5.57400756620798
N         7.73380398524523   -0.11795365548096    3.45745886710239
N         8.80885557469174    0.67058528954499    3.51865733551206
N         5.75328102534521   -1.24232632374084    5.15498669349646
N         4.46666292708311   -0.79792770865176    1.84129020310200
N         3.32071647490005    1.31661229808771    5.58810923328893
C         5.62822603596652    3.18125559188691    2.58797772636762
H         4.59015747743170    2.98860246438990    2.38674200257018
C         6.41646966098374    4.26839785854055    2.21149933912678
H         6.12096812589190    5.12478753541710    1.64161600790475
C         7.66054787460665    3.99373571973504    2.73782780682909
H         8.57282946639076    4.55296641537445    2.69542036917085
C         6.84092467342407    1.12028773734759    7.08516057001224
H         5.96993270057700    0.63736174145320    7.48808219858066
C         7.91502864407069    1.70626562444812    7.75492627107931
H         8.06211498864135    1.78242128252126    8.81214855652933
C         8.74579747871636    2.15819737903780    6.75233478301837
H         9.68643833450912    2.66817522873532    6.80298770768684
C         8.10809103350266   -1.27671389154578    2.93638005708680
H         7.40371833393471   -2.07647229598991    2.79929102396660
C         9.47218067697575   -1.24021312460965    2.64694853081146
H        10.07092033210499   -2.01906966460461    2.22224270263640
C         9.87693623143583    0.01885125697648    3.03570648266664
H        10.84174924782885    0.48287976685699    3.00066923440120
C         6.18790740116102   -2.09793655986126    5.83570814830342
C         4.99841055679918   -0.21997640100564    2.70696901098449
C         3.75335502912717   -1.63140048851398    0.95358520717229
C         4.02249231356440   -1.15803578801186   -0.47743495741171
H         5.08670234371113   -1.20412889134446   -0.69659613203395
H         3.68757886363998   -0.13146226507124   -0.60721964675715
H         3.49210927296943   -1.79198900453152   -1.18289566296209
C         4.24812192767639   -3.06706147921510    1.15611427627721
H         4.12674873341320   -3.36127998359733    2.19597894011399
H         5.30157498917594   -3.14438770141276    0.89753370621194
H         3.68197142723711   -3.74831509444921    0.52633810393791
C         2.26434860211272   -1.51871303458757    1.29563014553758
H         2.09469388065348   -1.82496978709199    2.32502332861144
H         1.68270575245915   -2.15712793654065    0.63596396037096
H         1.92613129961372   -0.49149678505511    1.17961329852591
C         4.29943621772042    1.08313665664403    4.99324740609609
C         2.13470701283920    1.38160334538550    6.35027517721883
C         1.21631875544528    0.24619170361590    5.88728001348573
H         0.95877796287172    0.37187289965177    4.83821802907665
H         0.30348647395789    0.24244984106745    6.47693975920661
H         1.71937356039242   -0.71037428951632    6.00617038665366
C         1.48020737165074    2.74582383559549    6.11527504513479
H         1.24385341765510    2.87561224677219    5.06163276742863
H         2.15142597086952    3.54539941938177    6.41999533492982
H         0.56216574458234    2.82049447456298    6.69191353657580
C         2.51288448306688    1.20419890065970    7.82413439938581
H         3.00131946229426    0.24367433103263    7.97084902873767
H         1.62124415028001    1.24348455634879    8.44425615135175
H         3.19415930896799    1.99196417892098    8.13814858974004
B         8.69940514109526    2.06694753099403    4.14487527770266
H         9.72578584859655    2.65134007965986    4.12123515939902

