95
CSD_code = QIDDAK | q = 0 | S = 0 | Stoichiometry = C38H40BN10O4PRu | MND = 6
C         6.40185423196968    3.18673170182444   12.63754729565870
H         6.70565601297745    2.28063627039214   12.15155426727540
C         5.44909886399185    3.36531101385248   13.64052227345629
H         4.83082150428436    2.61782567240310   14.09284832852705
C         5.48520716526848    4.71361469205172   13.91963883232026
H         4.92641088347114    5.29815980925619   14.62235950387106
C        10.39251004427906    6.17510992433150   13.04370636823927
H        11.22524633339985    5.66738797180299   12.59369148531462
C        10.36971854503799    7.03201336286172   14.14478325579160
H        11.19833350234332    7.34262652670853   14.74696739318218
C         9.04465166067199    7.38550663698397   14.28613044840544
H         8.56456570348325    8.02456250845240   14.99912822404785
C         6.74392456204730    7.06593155052338    9.44172542729427
H         7.02176227772528    6.68669068862527    8.47702326534426
C         5.88322893037804    8.12165557341300    9.73734994272517
H         5.36851913061081    8.75728338146276    9.04713800231647
C         5.84406290441369    8.15836371272387   11.11390806789134
H         5.30938033596478    8.80536072403681   11.77894872264372
C         5.95689266994269    3.50975057223467    8.79408785541104
C         5.02505762062869    4.18285620053509    9.57570571916548
H         5.35043266759165    4.69516280051322   10.46899808994161
C         3.68783176162247    4.19831454478626    9.22138266739444
H         2.97401383696711    4.72476177500918    9.83828508116249
C         3.26734091217256    3.54097354117188    8.07806964320671
H         2.22449273941733    3.55303527378211    7.79757974689506
C         4.18937137915251    2.86647982694908    7.29343327672339
H         3.86441607650302    2.35145340577678    6.40110858859621
C         5.52598866509937    2.84979409855887    7.64628336898686
H         6.23730099548954    2.32372133814613    7.02693528075171
C         7.98849209874955    1.73530252478587    9.67037360674879
C         6.96969561519792    0.88099160953461   10.07509696240922
H         5.94415560533022    1.22667975085757   10.07809309607387
C         7.26913493349664   -0.41122759792151   10.47201671881553
H         6.47372097572717   -1.07027501978818   10.78916861741214
C         8.58044103035923   -0.85388799197622   10.47905127005528
H         8.81119583111004   -1.85597928818660   10.80818543770793
C         9.60065592531905   -0.01068200567358   10.06630973935317
H        10.62645969047076   -0.34842765940486   10.08375273533302
C         9.30471861930420    1.27559476586408    9.65920285658289
H        10.09305087846319    1.94709030293878    9.34134393312838
C         8.51825526131172    3.61696977272366    7.65729280156316
C         8.74478117652756    2.50505738946060    6.84914336444626
H         8.49203425072846    1.51534793576047    7.20236117160117
C         9.31482843162819    2.65292681026098    5.59691672993706
H         9.49117537762345    1.78085150170933    4.98416592565865
C         9.65767644843122    3.90968122557878    5.12725307746924
H        10.10132594407903    4.02105219313756    4.14896304332021
C         9.43381664160615    5.02124144209989    5.92236570041276
H         9.69794182248381    6.00542662781454    5.56198217322167
C         8.87246167700139    4.87363117763616    7.17793822686053
H         8.72758647661768    5.73715825907739    7.81103566521509
C         9.96017039830000    5.42949180661199    9.98667029282267
C        12.30687170765934    5.56983258575961    8.97989517686585
C        12.48338162997638    4.17419403401373    8.37410891958665
H        12.30245492757807    3.42713619506581    9.14324670023281
H        13.49496061117395    4.05886685225249    7.99320594365943
H        11.77742059569830    4.01790780780920    7.56062457928148
C        12.49301195034049    6.66034443946741    7.92236955233098
H        12.32163496394805    7.64279187795168    8.35676090777885
H        11.79168633220637    6.51341951932367    7.10428792203058
H        13.50443576288360    6.62522843179938    7.52626431170155
C        13.27180403788117    5.76265566603661   10.15307413120765
H        13.11870425085905    4.97101130568578   10.88294536188671
H        13.10271586032244    6.72519450164474   10.63123661089034
H        14.29844037576378    5.72298747136973    9.79780602971851
C        11.31520015907338    2.23308912721445   12.04976441422460
C        12.66028683539656    1.68472761502169   11.86946773805329
C        14.92810302719165    2.22148920953657   11.66112353513361
H        15.56137693938224    3.08757965051415   11.83679654507112
H        15.05112259369048    1.85813254168110   10.63785335115579
H        15.17804534162269    1.41357995302390   12.35193434845741
C        10.20985714480082    1.69667857977205   12.73578687513556
C        10.14658657845776    0.52108219191388   13.60095894394625
C         8.76640720320220   -1.19453540296825   14.38202670412515
H         7.78427132025521   -1.59758424595704   14.14726568747620
H         8.82774315630689   -0.93122963761521   15.44070581664916
H         9.54820204631010   -1.92454800585051   14.15932166941642
N         6.96261703636197    4.34877001816349   12.34107686634975
N         6.40491504174760    5.27965147064237   13.12318536427339
N         9.16274619862121    6.03587354106971   12.57052948288702
N         8.34458003803660    6.76942332990789   13.32230906454116
N         7.19027602559709    6.51639333326517   10.56443133659639
N         6.63609999520373    7.18274962274877   11.58217287327694
N         9.61023960173863    3.44317232913698   11.70058636220655
N        10.88125147958297    3.33248403852707   11.41566197520246
N         9.17135803465038    2.50588271390447   12.48604691672079
N        10.99016697227848    5.65187343110232    9.48341675043041
O        13.59379363510655    2.65380403222415   11.87189930139641
O        12.91321843340370    0.51951380192404   11.69000214750235
O        11.06163865727732    0.09415611906523   14.26164770529849
O         8.92555095843369   -0.04108085004460   13.57463115596832
P         7.71788514556729    3.50167486736857    9.30785719337933
Ru        8.45557788117254    4.90436801703712   11.01564906209529
B         6.83990048242881    6.74661167410883   13.04312219901240
H         6.23489200339533    7.43335561356096   13.79061889715474

