58
CSD_code = QIDDIS | q = 0 | S = 0 | Stoichiometry = C22H26BN7ORu | MND = 6
Ru        8.92910879541871    3.50484269409649    1.01797619756163
O         8.00144359943640    1.70377516341708    3.21669712183404
N         9.58275809686837    4.77207980885643   -0.48980853650292
N        10.24580620739799    5.89405371449276   -0.20011482066051
N        10.76307573686080    3.86980173795978    1.90359416918337
N        11.28150086128520    5.10110945892806    1.89983589406823
N         8.33525610659228    5.36188186628992    1.97679976838379
N         9.17990138773987    6.39329150193086    1.96353492577344
N         6.28315328100655    3.26431734917051   -0.50379069707585
C         9.40162695373464    4.73920987934971   -1.80318308790328
H         8.88049013199941    3.92387285706006   -2.26955696171253
C         9.97077074390763    5.87138857794620   -2.38545943664183
H         9.99466380831397    6.13249452043761   -3.42338965684130
C        10.49543653513596    6.57946487667584   -1.32498264845724
H        11.02273102755901    7.51153200744409   -1.30267933146011
C        11.59584752622562    3.08722443878666    2.57721510617815
H        11.38902082247975    2.04342751911192    2.72409684258134
C        12.68939507516807    3.83027654575155    3.02024659800554
H        13.52871720957028    3.48454354774456    3.58726343555317
C        12.44514348725312    5.10836823480162    2.56661055611960
H        13.01760355035129    6.00716287857215    2.67451871394648
C         7.25256823540884    5.73180962907119    2.64310733782068
H         6.43171122413330    5.05293932429165    2.78239515053413
C         7.39657852604153    7.04958092400830    3.07854645299962
H         6.69849331794394    7.63354490542424    3.64194462331449
C         8.64101522565710    7.42995237937894    2.62197401838840
H         9.16656509885902    8.35765650307051    2.72359475420089
C         9.83651226498043    1.84430269673435   -0.01254914801407
H        10.66437888484927    2.24134301443505   -0.61834233619622
H        10.26835567185996    1.16168398386847    0.73058347345245
C         8.92203988249037    1.06958028201488   -0.87633311216084
C         8.96935446259300    1.15507697231468   -2.26877773998634
H         9.71055972868500    1.78927687203545   -2.73687493396093
C         8.10161043072752    0.42850729338814   -3.06446573100088
H         8.15902246354556    0.51609552940368   -4.14132708654409
C         7.17321978502177   -0.42265462289041   -2.49025284119990
H         6.50007030169214   -0.99648958154649   -3.11102805179314
C         7.12544372072170   -0.53865694107621   -1.10820329239172
H         6.41781280512865   -1.21685396898537   -0.65043550467256
C         7.98383607536467    0.19583959912147   -0.31627733265376
H         7.93602936469190    0.10395610919823    0.76043898850031
C         7.28276418396344    3.29589114171093    0.09935499540160
C         5.09441727648915    3.12495821272100   -1.25003119334888
C         5.47340371849746    3.03783576537499   -2.73124822196522
H         5.98513217909633    3.94519072974217   -3.04493605456181
H         4.57876130722724    2.91328841593195   -3.33557782574349
H         6.13409264077575    2.18958466382510   -2.89642788358297
C         4.39294055400177    1.84328722675396   -0.79450694792569
H         5.04232427398825    0.98757138658109   -0.96248810785307
H         3.47083619455871    1.70711182590679   -1.35338726982566
H         4.15867748544249    1.89686655881256    0.26604388338845
C         4.21856733199861    4.35343785479686   -0.98225717228524
H         4.74063543651700    5.26188702288069   -1.27443842523746
H         3.97488006114148    4.42066032344094    0.07547750634058
H         3.29519865188828    4.28132174609381   -1.55082691536740
C         8.36801662755085    2.39665214850958    2.37241296155555
B        10.54090616973849    6.27893511810134    1.25567318506913
H        11.15981749242691    7.28350977673583    1.32952164537620

