51
CSD_code = QIDFOA | q = 0 | S = 0 | Stoichiometry = C18H28Br2P2Pt | MND = 4
Pt        1.93957635025508    6.47850938503090   18.23690185823445
Br        4.10954419378525    7.37707388320321   18.79781821211030
Br        1.56420640483930    5.45984338739641   20.39427368898421
P        -0.13253560754100    5.82493019935462   17.60824438252819
P         2.21535978505538    7.24388932919519   16.12450380413965
C        -0.37293236502564    6.28120383925500   15.85609114303310
C        -1.55967278119869    6.02765691845678   15.17674751116807
H        -2.38771243403128    5.56016479722895   15.69004008976262
C        -1.69175844601726    6.37306662765414   13.84412048326832
H        -2.61608608803871    6.17115535884394   13.32372918467158
C        -0.63705459674742    6.97458028463485   13.17599336234198
H        -0.73878449198438    7.24118995301367   12.13462140514402
C         0.54531049611545    7.23729597718271   13.84363709170243
H         1.36274358761760    7.70584378154581   13.31456124376158
C         0.68698316321283    6.89957879433163   15.18530098869940
C        -0.38209529524715    3.17655272714418   16.59185008627050
H        -0.60678841535602    2.13722959377852   16.82399246737971
H         0.66379570689435    3.24100914532523   16.29312451389973
H        -0.99864491548642    3.48109272753478   15.74812041839464
C        -0.63441074012279    4.04748556179059   17.81390014395952
H        -0.00120337770281    3.68779120898182   18.63690661560100
C        -2.08297348854297    4.08238887427101   18.31049748729175
H        -2.77322486264224    4.18413328660710   17.46935952344939
H        -2.32904675096283    3.15818104005929   18.83432168527097
C        -2.19589274527876    5.29105392466453   19.23455791738014
H        -1.59265521919233    5.12085589560818   20.12889261268071
H        -3.22670300015909    5.47023445178088   19.54305765767710
C        -1.63649634832493    6.49487272357210   18.47093168103079
H        -2.34481107221614    6.80188186604635   17.68979652931629
C        -1.30902093644868    7.69482134549040   19.34914138301286
H        -2.21044853705552    8.07753118047980   19.82395922571521
H        -0.86770097888688    8.49441250219123   18.75263951579215
H        -0.60552086868057    7.41522724052836   20.13133507203223
C         1.47695721195135    9.95358680524267   15.65483869906681
H         1.81566583421198   10.98667566164125   15.60504518223913
H         0.78505698543988    9.86134949265690   16.49162702335058
H         0.93754183463136    9.72407337072685   14.73773063168771
C         2.66697356564992    9.02592919996730   15.85244174580373
H         3.18345318278978    9.31189472151162   16.77934685622876
C         3.69595340506252    9.02281680568422   14.71785205569478
H         3.19471645457959    8.99843236558539   13.74707076218913
H         4.30776181823204    9.92474121046312   14.75525155765897
C         4.54466091855632    7.76897230729019   14.90545314366478
H         5.13164669788984    7.86311783125136   15.82153498828386
H         5.23007971638425    7.61501588622306   14.07109247290564
C         3.57912378890506    6.58848700588743   15.04491902892958
H         3.13257670904714    6.35540574736254   14.06899165173523
C         4.21199150010667    5.32846396820136   15.61947436518243
H         4.99058772007727    4.95614558540190   14.95636202651539
H         3.46107876940355    4.54689541813861   15.74240873435589
H         4.66162856219701    5.53475880458248   16.58909008880315

