67
CSD_code = QIDGIU | q = 0 | S = 0 | Stoichiometry = C31H31ClNOPPd | MND = 4
Pd        4.72486385435974    7.73765498656968   28.51445862388577
Cl        3.67922971106674    7.70275370451180   26.40678723872029
O         6.72908501480434    4.29558940308514   29.31772957311154
C         6.12039563935337    5.48384066711102   29.41438640929652
N         5.32889638733331    5.79086291069878   28.46492482330982
C         5.40800339136333    4.79253780291522   27.42361867986292
H         4.40509390300480    4.42148961719582   27.18370302236180
C         6.29203584526462    3.70230869580720   28.09393418508948
H         5.73648321472825    2.79047231930425   28.33032500648035
H         7.17109481263933    3.45011380428830   27.49559142196966
C         6.42940258648923    6.45215680558531   30.51123358199984
C         5.33496927601379    7.52635025971555   30.48077641277513
H         5.67947206042122    8.40749391538571   31.03126346478791
H         4.44103305983419    7.14078938540564   31.00238059941868
C         6.53781578629718    5.73896983714382   31.86242194732202
H         7.32550174667220    4.98892339540070   31.83608234448344
H         5.59910035727511    5.24700959472704   32.10895640317987
H         6.76324425194030    6.46319987890945   32.64168308466100
C         7.78099004884090    7.08750522607446   30.13942646624458
H         8.55196014265396    6.32726393792397   30.02886439030983
H         8.07940709966356    7.78388934555935   30.91956284490566
H         7.68101487162646    7.63812662456523   29.19936946159953
C         6.04166673978810    5.34306008692270   26.15980433522853
C         6.02058478673232    4.55195392538320   25.01769182535686
H         5.54127730657458    3.58339005346258   25.05138945019071
C         6.59659139704101    4.99898736655549   23.84325958643525
H         6.56880611014723    4.37639218740606   22.96110637314006
C         7.19455239868858    6.24685531802423   23.79624142414960
H         7.63399833232607    6.60263105956688   22.87618371740821
C         7.21857806175933    7.03971509453913   24.92958571712974
H         7.67244729296418    8.01919984066607   24.89572504926996
C         6.65229126376464    6.59018775502073   26.11070586163939
H         6.67070960820277    7.24758775992892   26.98709409412285
P         4.10777453815153    9.86099635087281   28.58731096778378
C         2.34965151240604    9.89490620748158   29.04018704291605
C         1.76286389131383    8.68320507745298   29.39610860611212
H         2.36936808075282    7.76858369788946   29.37010013192852
C         0.42404148578979    8.63609346355769   29.74164119139365
H        -0.03376972412136    7.69554917297980   30.01116212996885
C        -0.33293545573758    9.79667506424404   29.73395650750163
H        -1.37850319114023    9.76073955778018   30.00291776119647
C         0.24382573630518   11.00240423284983   29.36655195563894
H        -0.35367889583013   11.90247590396514   29.34633536859172
C         1.58026353588684   11.05501548471342   29.01428402130444
H         2.02620544873814   11.98931675921851   28.69979884750922
C         4.15726997428208   10.94334817050524   27.12255955481515
C         3.14241753931703   10.82802580879239   26.17515127829407
H         2.34841431754296   10.11258858365167   26.32866257201445
C         3.16876174209965   11.60676390580010   25.03395342393906
H         2.38088892352710   11.50897781182637   24.30189419492231
C         4.20338307344717   12.50432724181230   24.82513965606057
H         4.22333081173903   13.11046406395901   23.93116980714394
C         5.21515521467158   12.62013190795344   25.76297022194064
H         6.02536859380826   13.31720932823618   25.60322708521304
C         5.19680217762075   11.84184733692827   26.90711464496907
H         5.99145404136696   11.93890182080305   27.63379597639685
C         4.97465892414759   10.87924007971186   29.82775661226922
C         4.37097291992249   11.72364721209619   30.74732738667865
H         3.29512996736535   11.81503475251821   30.77523058651466
C         5.15107447960421   12.43768365330742   31.64250090698684
H         4.67825703239188   13.09221995127125   32.36024573977060
C         6.52993380949683   12.31600554460359   31.62356008684496
H         7.13157476622451   12.87726621356529   32.32329933795098
C         7.13868056488330   11.46441171500820   30.71386931054733
H         8.21417209349873   11.35979615971880   30.70508679671527
C         6.36211326594774   10.74480969118397   29.82738827558674
H         6.81328244449192   10.04947550955314   29.12327459140390

