53
CSD_code = QIDJIX | q = 0 | S = 0 | Stoichiometry = C26H14FeN12 | MND = 6
Fe        4.13508779937844    9.80107061983692    0.83302587262225
N         5.56598034760888    9.62078964466893   -0.52273872487440
N         4.92562393568700    8.28985317844570    1.52737420701641
N         3.02947666932450    9.52835240240275    2.36056840347912
N         1.94053103300763   10.02416836103332    2.89772399695676
N         1.61646877295754    9.30083374704076    3.92241942405249
N         2.46656924165914    8.31454930231039    4.10036858223189
N         2.69065035071795    9.04023384969646   -0.28794184971049
N         3.34386014329312   11.39465522941483    0.35780534181509
N         5.25676273210191   11.01608541917134    1.77968903780121
N         6.35897178090623   10.99935601135760    2.49032562488672
N         6.69177060848269   12.21982105129212    2.76938789287438
N         5.83464981823470   13.07763309140973    2.26265524486904
C         5.89862077081932   10.35507561646973   -1.57164098750162
H         5.22987469323898   11.16700466917084   -1.82029495742808
C         7.04716501977194   10.12073446593417   -2.32914083054389
H         7.25864374371226   10.76267864704222   -3.16985559619808
C         7.90376158221654    9.09111170010824   -1.99983043092759
H         8.80093545431417    8.90720046279214   -2.57122737961223
C         7.59089865219532    8.28928433290949   -0.89050489009609
C         8.37247630028536    7.20341584241202   -0.39441441564230
H         9.27895296104860    6.95385777541062   -0.92608167064699
C         8.01850075712695    6.50270531633076    0.71865744388567
H         8.64327744037494    5.69648413549512    1.07390695516337
C         6.83775482746967    6.81700908309544    1.44881285561801
C         6.37861809181932    6.21055940380579    2.63670683773978
H         6.93900824535651    5.39659632613481    3.07150724193213
C         5.23578898077526    6.67609955881636    3.25089431966636
H         4.87960004151097    6.24975883844399    4.17485660507835
C         4.52306037718454    7.73965024865432    2.67822895559957
C         6.04994158371143    7.86579844697416    0.94700351913651
C         6.40659968854283    8.60773796294212   -0.20121733341362
C         3.35930311590899    8.44559447934576    3.12673576146302
C         2.35302706838687    7.79611401560251   -0.58503728352545
H         3.02196023925123    7.02148954408919   -0.23760253404241
C         1.19879803229065    7.47261211089212   -1.29986649542708
H         0.98371331199738    6.43525610884167   -1.50328009846152
C         0.34137153426678    8.46419723194131   -1.72877346493231
H        -0.55981634075059    8.22579969023331   -2.27304578216130
C         0.65894876540149    9.79889376797380   -1.43008029824953
C        -0.12304730952639   10.94265850221633   -1.77120583781348
H        -1.03369106737534   10.77953530847551   -2.32868832303601
C         0.23548876181924   12.20380258425313   -1.40221115069188
H        -0.39010557417009   13.04442581621521   -1.66403770160244
C         1.42261247981034   12.44927953132265   -0.65617144921589
C         1.88732773063097   13.68925759069155   -0.17023427609930
H         1.32497079382683   14.58760573053391   -0.37590361593897
C         3.03846019376514   13.74536412137211    0.58597969742220
H         3.39947696176663   14.67581806227726    0.99371849770020
C         3.75366778718284   12.56849424805873    0.85120297633046
C         2.21183631946588   11.32980229226440   -0.34582930009397
C         1.84907129247436   10.01418304644279   -0.71149633113884
C         4.92824345873967   12.33535147593576    1.63859771368393

