48
CSD_code = QIDLAS | q = 0 | S = 0 | Stoichiometry = C18H20ClN4O4Rh | MND = 6
Rh        2.08868029165800    2.29648734637623   13.92330459267584
Cl        0.41310772024863    2.06687873788395   15.44045310532099
O         3.09307162002480   -1.38109181640286   10.86076517667799
O         2.00789620531902   -1.99162336266265    9.10012875760948
O        -0.92968472469744    1.34587305604793    7.30491852519220
O        -1.84221826689913    2.78646114140887    8.61890879046675
N         1.51403859907431   -0.42318176736504   12.81227648929203
N         2.58059577866100   -0.55838756428634   14.67906387266524
N         2.14385607580300   -1.32065359189349   10.10041237212531
N        -1.12238621925868    1.83597721453465    8.39646756682242
C         2.08279314589066    0.32382777796362   13.80217973020354
C         2.33208508729512   -1.83977492337222   14.26392002153792
H         2.63557199484428   -2.69590679791292   14.83037672283149
C         1.67441490022804   -1.76323625070324   13.08715400059694
H         1.28092706338004   -2.53808445858665   12.46274934703568
C         0.88972178534887    0.12842392257268   11.69690680512373
C         1.12317911395635   -0.34455850827746   10.39163902351857
C         0.44203703978305    0.20078238150846    9.31244201920445
H         0.62147168619341   -0.17439044551778    8.31455350924636
C        -0.43837157517553    1.24819134981343    9.52192228132918
C        -0.65983324597910    1.75125290919281   10.80524620599530
H        -1.35860517782076    2.56316574265123   10.93649804133522
C        -0.00791946325524    1.18816374633308   11.88083233820894
H        -0.20908721435078    1.53532157875909   12.88887007238928
C         3.25126742287841   -0.20037869563757   15.89863595077932
H         3.17618073867618    0.88526184548614   16.02107567175130
H         4.30142864264573   -0.49596293942327   15.86069352142874
H         2.77102633643405   -0.68715292606403   16.74791109903988
C         3.24964784709160    2.60233126821740   12.15166822564605
H         3.14159657738642    1.74673826708868   11.48649130987459
C         4.09774507744292    2.43421359395790   13.24455925508907
H         4.60268794497231    1.47185028759484   13.33470799012726
C         4.81817165108992    3.54701927523340   13.96983077093532
H         5.20244851779691    3.14225162840195   14.91020448630552
H         5.68456358727722    3.85834393785714   13.37619434977707
C         3.92610847397348    4.76397585556412   14.27777772801097
H         3.96402581186286    5.48248656350437   13.45843933081553
H         4.31447417300165    5.26574289907724   15.16607728685070
C         2.48698193203171    4.37176819249961   14.52399839935200
H         2.15841346395380    4.43718436395315   15.56084519891749
C         1.52378618463921    4.35874566646665   13.54304659450511
H         0.48116469537054    4.44645699805033   13.84899801843406
C         1.76537650730836    4.66967866734986   12.08420073369290
H         0.87247891262439    4.38452556927084   11.52273680415407
H         1.88737882055754    5.75147802802054   11.96663125993335
C         2.98516270600329    3.93796350660534   11.48950644415278
H         3.87984630126894    4.55646833947477   11.57373341692929
H         2.80749545343523    3.77609238938836   10.42454678609001

