88
CSD_code = QIDNAT | q = 0 | S = 0 | Stoichiometry = C40H32MnN5O5P2S3 | MND = 6
Mn        1.67104276405427    3.94448281420507   13.99709833854679
P         1.53858455381395    2.17971343452112   12.60132918720074
P         1.70269214176526    5.16123503540043   12.10797807800156
S        -1.10048635662703    3.03312704020512    9.43086000566788
S        -1.96168921863274    1.30523459713117   10.08266009688910
S         0.06473438855985    5.78481105627456    9.57605699637762
O         1.98460904192140    6.29738489677719   15.70165486890878
O         1.56296674197286    2.00836227794268   16.18259899358063
O         4.57662494275324    3.87227366985835   14.17600170566933
O         2.18566247752591   -3.50154891431106   11.23428929738349
O         3.39132159462968   -2.45957397475230    9.78836303975430
N         0.42277766763533    2.25669321110407   11.42694213731194
N        -1.32410917876505    4.07748253174674   13.80755182627775
N        -2.18783304775913    6.61362812747491   11.05886032861906
N         2.36260659344221   -2.62279421364104   10.41469849660775
C         1.80215978889544    5.38773142501656   15.02542954361949
C         1.58330271848537    2.78980757340837   15.34377072884529
C         3.43821768766790    3.87678429902605   14.05609428061339
C         0.12549590549623    3.32670864055500   10.73412485345970
C         0.63723182330481    4.59721751645973   10.79172168067855
C        -1.27834970381779    6.30647541671796   10.42960150168340
C        -0.16460270975632    4.02674546123970   13.88120700963612
C        -2.73530716114697    4.15010458245248   13.86129825327425
C        -3.19510513360844    3.28523880095076   15.03958239318796
C        -3.29439888903532    3.62362168592242   12.54027564782634
C        -3.12349544596150    5.61549437502551   14.06947835704410
C         1.01946159751600    0.58949893160200   13.32160421877609
C         1.78146805083521   -0.57056840884766   13.33704513172188
C         1.25422688175746   -1.73603286248799   13.86842197907044
C        -0.03313922856527   -1.75291153677167   14.37621299818876
C        -0.80335277617239   -0.60147344362082   14.34915034488005
C        -0.27755428072172    0.56251219477187   13.82665258895109
C         3.11474848548170    1.75367001722705   11.79635673560878
C         3.24351320925214    1.79279477143141   10.41553044754366
C         4.44608866671753    1.45343697121012    9.82148241220772
C         5.52160740780165    1.07151473926211   10.60347217891398
C         5.39507145646651    1.02237669149739   11.98324545691296
C         4.19731504772459    1.36241605759073   12.58132429506051
C         3.35019264035873    5.34894214738047   11.36109526232038
C         3.66071079636721    4.87083741641137   10.09545637317812
C         4.94820470016703    5.00866368286729    9.60686641069709
C         5.92011381339014    5.62754548682217   10.37339718593053
C         5.60475682270817    6.13316437292859   11.62636861922862
C         4.32370809851359    5.99602961517480   12.12091279537814
C         1.20056860722924    6.90566894105882   12.25837203675509
C         1.72979782200361    7.86693212523476   11.39975839784844
C         1.28351014997370    9.17323693148267   11.46752745130388
C         0.30608936001048    9.53127947862023   12.38140330051683
C        -0.22754903406710    8.57789617142227   13.23172833699461
C         0.21554597655669    7.27004034349532   13.17088836054502
C        -0.67620411409002    0.11606429858985    9.97839019098170
N        -0.86495733097618   -0.92564247803632   10.77782986339658
C         0.08779455223914   -1.82159136747555   10.87587401485302
C         1.29397570564448   -1.70102376488855   10.18642733066065
C         1.45189668704903   -0.65706631602699    9.27304745855801
C         0.43724738801337    0.26181471081774    9.14764193892884
H        -2.74423315922359    3.63148617663770   15.96756849787166
H        -4.27602322209435    3.34561226198428   15.13152715662855
H        -2.91766297018997    2.24454315048838   14.88647382942962
H        -2.97539775461662    4.25900529742064   11.71707104546490
H        -2.95872408480555    2.60520253675886   12.35626198633688
H        -4.37991391940332    3.62940010534350   12.57702088803966
H        -2.67485449028903    6.00585475715767   14.98113276925082
H        -2.79755134529407    6.21553955264426   13.22229887645100
H        -4.20396663368002    5.69220172614632   14.15207283036725
H         2.78331734152709   -0.57620940182970   12.93145031310911
H         1.84983802457931   -2.63694238957287   13.86768083847793
H        -0.43849494529428   -2.66517798235920   14.78752406573497
H        -1.81197378873708   -0.61539633240157   14.73534769390668
H        -0.86756182528772    1.46906505077462   13.79376097559211
H         2.39546999440323    2.08360810573079    9.81279804613542
H         4.54300859708053    1.48550944074009    8.74605598506806
H         6.45868967219089    0.80417465002440   10.13930176821662
H         6.23138982191846    0.71544750627742   12.59365082974419
H         4.08974322972509    1.31701992761184   13.65904611829406
H         2.89200771538081    4.40654015709493    9.49351789446636
H         5.19089740721892    4.63282261025457    8.62395257162071
H         6.92530176711308    5.72659503867758    9.99175912260999
H         6.35964982079884    6.63174669998952   12.21596584843352
H         4.05799760102165    6.39848488029749   13.09332758207830
H         2.48682252288093    7.59204983098021   10.67841061900440
H         1.69876128781591    9.91300930818665   10.79922965020107
H        -0.04095099270163   10.55240976482677   12.42852475285774
H        -0.99353277987888    8.85087330315263   13.94176239240999
H        -0.20718653433796    6.52743363839839   13.83478628095564
H        -0.09542781998936   -2.65916841174505   11.53366020428092
H         2.36149107725410   -0.58900016673370    8.69532665288597
H         0.49925923668922    1.08119192311122    8.44812015272371

