74
CSD_code = QIDNEX | q = 0 | S = 0 | Stoichiometry = C23H47NNiP2 | MND = 4
Ni        3.35500251415820    2.44932543308623    1.29418509138014
P         4.96852031900870    3.49499620477816    2.44503805624696
P         1.69489442998223    3.33779517942614    2.51505827918860
C         4.01937527455352    4.18970414978488    3.89066288594133
H         3.94311960388363    3.38493039667509    4.62111165241425
H         4.56403791214727    5.01818738082116    4.35186536747699
C         4.14665583331881    1.39150749504193   -0.20730246678605
H         4.90153701315496    0.76819279265951    0.28039095767500
C         2.61028906532625    4.63771201068068    3.49602606179855
H         2.68780223070711    5.51238882724823    2.85147734946520
H         2.04337131121849    4.92314303671726    4.38573939179919
C         6.60858991797483    4.60548294973434    0.51926554060405
H         7.13116137582565    5.45915641487117    0.08852166159429
H         5.79690470649621    4.32425100552997   -0.14949957151954
H         7.30721148847223    3.77651841724764    0.57976313960887
C         0.57890874168616    2.53923344994693    3.82464062139620
C         0.66204613958969    4.45268074042002    1.36721028824098
C         7.13458140100804    1.72342466980701    2.37483025315786
H         7.91577581199168    2.46710005091779    2.23744110118075
H         6.69994843959348    1.48754777374256    1.40591186638418
H         7.60243893400849    0.82097721362378    2.76749693823838
C         6.05491121946765    2.21677158399293    3.33882037912795
C         1.75142203471474    1.16649708968358   -1.10232191474092
H         2.02590466755932    0.53124522480286   -1.94869405345597
H         1.67065793616105    2.18946367048988   -1.46429805093801
H         0.77836484229884    0.84051844251456   -0.73866947429765
C        -0.43871989205266    3.60685103664611    0.72706305191321
H        -1.25323340334056    3.42839375290438    1.42424544166571
H        -0.03731006314164    2.65030755953596    0.40181825604160
H        -0.85432161862460    4.11974225268033   -0.14055380071599
C         7.15566851274233    5.37717182500913    2.84174504277596
H         7.95555578699002    4.64272504761413    2.85420117194013
H         6.78697357580953    5.51725579724407    3.85537183873115
H         7.58311705428113    6.32285704672289    2.50749325986627
C         4.60533263886637    1.99451215627792   -1.51183247828258
H         4.53206591974277    1.24380492349847   -2.30425210376339
H         5.64346008879139    2.31288674989630   -1.44767541742085
H         3.99602663468025    2.84744452491929   -1.80842652538554
C         5.08537410580088    1.05813668605866    3.62079097904871
H         5.62340898190301    0.11727340798426    3.72197306791176
H         4.35983533315901    0.94375785125597    2.80284285287952
H         4.53471148344874    1.22249550857714    4.54397311492892
C         2.80322271130748    1.01908971207499   -0.02211979282917
C         1.66276603308294    4.86138163268297    0.27287874247885
H         2.39067221484163    4.04895350242707    0.09549013613033
H         2.21244298868825    5.75482759661062    0.56051896153141
H         1.15252121788656    5.07573365659841   -0.66526404680247
C         2.54217435025154    0.03897544352444    0.96310087725718
C         6.70692773429260    2.63517193520531    4.65653134801245
H         7.09800800527352    1.74363101262591    5.14693918344780
H         5.99742754170111    3.10094694051336    5.33523267566147
H         7.53679084148075    3.31699782370849    4.50493110674751
C         6.03655672653275    4.96783902871956    1.89101368906883
C         1.51857145966306    2.03878519041413    4.92440924244303
H         1.94267056766450    2.85865299795185    5.50002061894048
H         2.31868797566793    1.45024808228538    4.47907454460102
H         0.97334455421072    1.39478517433835    5.61329157893811
C         5.09816126809956    6.15955992850352    1.69083082819629
H         5.62485404519337    6.96363656312801    1.17719437052895
H         4.73565653834371    6.55213129559933    2.63775556203600
H         4.25280362095302    5.86406811123429    1.07382620509257
C        -0.48147459815158    3.44949440173696    4.43648038508137
H        -0.92665511323894    2.95125946818265    5.29766189467401
H        -1.28003751769001    3.65663084363048    3.72940791752248
H        -0.06002663594720    4.39247776692283    4.77826449410250
C        -0.08336738042665    1.30648072337234    3.20544627882347
H        -0.60907022815616    0.74490203442986    3.97698316836709
H         0.66864863113534    0.65272889607601    2.76792846950920
H        -0.80365692400277    1.57009322327725    2.43763243375618
C         0.03894996539032    5.71276792690490    1.96587965247156
H        -0.40331133356843    6.29942096425072    1.16011678095589
H         0.77298748640842    6.33934389169710    2.46559225610811
H        -0.74824626776647    5.47754799088315    2.67418944439206
N         2.33292121751459   -0.79153149057567    1.73631188944225

