98
CSD_code = QIDNUO | q = 0 | S = 0 | Stoichiometry = C45H45CoN4O3 | MND = 5
Co        2.76136261226382    2.25926048279635   10.71245960823761
N         4.74335111719964    0.25514483072878   11.45455551553148
N         3.40647867211462    0.58848413185736   13.09362433929038
N         2.58366044608121    5.11531714829851   10.16961732952484
N         1.96738890871286    3.98567123821871    8.44824212133132
O         5.74596493825686    2.72528696243733   12.33555512983250
O         0.94344801784366    3.36814583433432   12.65284348094790
O         2.48768106342879    0.11350287006791    8.76720002603430
C         3.60261233483845    0.89004741125286   11.79310723870194
C         2.32241516348693    3.85486489203514    9.74556693684587
C         2.56776738505223    1.06536961208994    9.41246823973277
C         1.82589756003599    2.93228726422834   12.04440689014852
C         4.98476996004120    2.78510883392042   10.06590463834855
H         4.98447325569791    3.53917676122167    9.28024642062182
C         5.52532488326374    1.52650843647396    9.55212231353273
C         6.20080284321633    1.53896697332442    8.32770076322249
H         6.38422107929899    2.49144254412486    7.84803726430747
C         6.66200322326468    0.38247550248768    7.72739580970480
C         6.42753238517755   -0.83266644924374    8.35555841133246
H         6.74798453828117   -1.74877876881345    7.88036654117736
C         5.78303934609429   -0.89791844455762    9.58370708801934
C         5.51370652261902   -2.24943376502457   10.18307668895300
H         6.35920965563730   -2.58854358004897   10.78257617052823
H         5.36278751925539   -2.97631107556779    9.38739852846584
H         4.62661493972520   -2.23984523745441   10.81281395976399
C         7.39699545844217    0.42704794269355    6.42075937801205
H         8.45328224977293    0.20780449506558    6.57774111423432
H         7.31652766715392    1.40905783581023    5.96060774563938
H         7.00107392168513   -0.31803933946314    5.73260230948359
C         5.37260157102606    0.28700421514239   10.19039811791255
C         5.26918304530122   -0.39785576915825   12.53388589897825
H         6.20528583247910   -0.91245276185378   12.49040319221496
C         4.42588656335348   -0.19239587118740   13.56806761054003
H         4.45711897392176   -0.53085347081759   14.58301574848157
C         2.34933363955974    1.04505117804634   13.91892954733947
C         2.61686382635563    2.01766135694048   14.88409800056046
C         1.56499224560009    2.45894704043641   15.67291227548884
H         1.75223291287562    3.22506629351423   16.41187484356972
C         0.28279290966691    1.95028014694123   15.52997785770779
C         0.05589813246531    0.96208447364742   14.58206200888506
H        -0.93793440838895    0.55310681031844   14.46779274447221
C         1.07513115341181    0.49560570103221   13.76828282085264
C         0.82137781282076   -0.55611873634771   12.73200348098296
H        -0.18395834412394   -0.95685027003841   12.83022626819567
H         1.53649444409377   -1.37302531002679   12.82508826556223
H         0.93172773720147   -0.12812157927779   11.73374850419625
C        -0.84218991647520    2.47608399994683   16.36847807150158
H        -1.28054055421703    3.34995865330987   15.88585577183349
H        -0.48710858503911    2.77686638698625   17.35163590367921
H        -1.62299779794717    1.72848034007721   16.48675544149121
C         3.99369324061817    2.57153002177056   15.06766981020690
H         4.58516111691994    1.90844315259514   15.70057390750363
H         3.94426186738439    3.54364763406833   15.55027012257473
H         4.51853237267793    2.67353189726811   14.11847326791298
C         5.32194678007174    3.32400501665134   11.34407314891591
C         5.23000230336175    4.87889232576457   11.40244998222813
H         6.13160906482867    5.21230810425158   11.91992062372224
H         5.23537959975514    5.28196988491213   10.38883144690062
C         4.03304220400918    5.36986337237172   12.14286603232360
C         4.14409446158322    5.71521517160173   13.48565644968141
H         5.09779265763767    5.57859624157513   13.97383203414475
C         3.07127460260121    6.21887008500267   14.19874288336604
C         1.86424579898033    6.41317870031990   13.53872726099341
H         1.02499664340270    6.82627752760934   14.07969897589766
C         1.70583839844465    6.07116077782670   12.20709125160058
C         2.79256927054155    5.51819449674026   11.52186570666000
C         0.38061060865601    6.25842130714195   11.52947470808385
H         0.45494948179359    6.96466293635802   10.70245307185212
H        -0.35340843170439    6.63425847825944   12.23701409362885
H         0.01977661943991    5.30987672639205   11.13322947977590
C         3.19976662220703    6.58038680883005   15.64760171784244
H         3.11080854587268    7.65903619897746   15.77695543266580
H         4.16131439521881    6.26508811512598   16.04486535042718
H         2.40635572055008    6.11105613052827   16.22723018432264
C         2.41939720942961    6.00842819742080    9.14402702138095
H         2.59948402376340    7.05701339033600    9.26887332882113
C         2.03205093080561    5.30011199866035    8.05984541990403
H         1.78948444514634    5.61265687638665    7.06442872795759
C         1.47729190361816    2.95059648886962    7.60676481031985
C         2.25898497455768    2.46334251481298    6.55935419979236
C         1.72959188618959    1.47140446663459    5.74812801625930
H         2.33363744664530    1.07724752479605    4.94362766879397
C         0.45420295074817    0.96534250838686    5.95137050716414
C        -0.30752280550500    1.48067006409177    6.98928261717459
H        -1.30495539176389    1.10068542711062    7.15746741092875
C         0.18193129157069    2.47370092126560    7.82284682422012
C        -0.65514592470903    3.01627112966180    8.93990714217114
H        -0.22451957716212    2.72680732004623    9.90034101544794
H        -1.66787853072536    2.62670153905505    8.88295924780303
H        -0.69681655142741    4.10481908550410    8.90129493279946
C        -0.07643965589417   -0.11538996100014    5.06051814722084
H        -0.07341918595833    0.21222362432444    4.02167210457615
H        -1.09143201183834   -0.38728419900163    5.33793629885425
H         0.55303736951027   -1.00115171934372    5.13196018481979
C         3.66120014039427    2.93460313121688    6.33817973894142
H         4.33542106904229    2.31561006709876    6.93128938006670
H         3.79827153839144    3.97032488942875    6.63962029156265
H         3.93905964843563    2.83143543136764    5.29178364383399

