99
CSD_code = QIDROM | q = 1 | S = 0 | Stoichiometry = C33H39BF15O6Si4Zn(1+) | MND = 6
Zn        2.81572454314492    3.95250339544540   15.17903266300010
O         1.51273817384560    5.10839764024278   14.19937310852411
O         4.05111593198238    5.72737567502041   14.85369584454772
O         3.50104810878674    2.89274162003797   13.62724819963182
O         4.63386173819832    3.12168092459594   16.06012615275452
O         1.54763358285412    2.60822001959302   15.94002202966700
O         2.49838622679034    4.80970102909044   17.16454671098332
Si       -0.11325894165073    4.63484964538184   13.68763867417424
Si        2.67431207049612    2.64519187481857   12.08304193977155
Si        0.83532346146174    1.23984390382175   15.07452370693704
Si        0.44943824728635    2.39326801503181   12.98777167014637
C         1.89151836640580    6.47046520052154   14.17610833956388
H         1.63223733558293    6.93810338638476   15.13163879941411
H         1.36504203862789    6.98872381150198   13.37464796012910
C         3.39061271430312    6.59411029379723   13.94288566130070
H         3.64200605627019    6.30721835407443   12.91475412878055
H         3.70669389274277    7.62987838125067   14.11643537647644
C         5.45343210947884    5.93676467885394   14.86716511908198
H         5.88688842963817    5.78213340359728   13.87445747201057
H         5.87981014268432    5.22825089395921   15.57125791470015
H         5.67879698333127    6.95746833480002   15.19272495249096
C         4.86855385401457    2.55815718080899   13.75765179776213
H         5.48312161280976    3.42615180873208   13.49759716311949
H         5.11597699702874    1.73598270976330   13.08619664885085
C         5.16940719761131    2.13619890944141   15.18876626240425
H         4.70807696524488    1.16506316613975   15.40452331249451
H         6.25422619554990    2.06078367231065   15.33146197713113
C         5.04553180659812    2.92614294613838   17.40276652808036
H         4.73773971710880    1.94334789044030   17.77250746286926
H         4.58400969831575    3.70740886576619   17.99971095856449
H         6.13506747627049    3.00302339921768   17.47769236714207
C         1.46375786500590    2.67155190292666   17.35004504046729
H         2.33053222036172    2.16819201670333   17.79039832799965
H         0.55564585599513    2.17447524382604   17.69095870371614
C         1.43426110016972    4.12288678995637   17.80729660046860
H         0.47938985518557    4.58854099278571   17.53543433061710
H         1.56232597705119    4.17043217350979   18.89558185715098
C         2.66814806721272    6.12154084979925   17.67514558924285
H         1.75744364870438    6.71538635216934   17.55173834823865
H         3.48585422237603    6.57945896560492   17.12641973803337
H         2.91866417639124    6.08139144434483   18.74008009820858
C        -0.63745913480069    5.89208486839556   12.34592219910593
H        -0.89058661967015    6.87445749821930   12.73926794573668
H        -1.52945698200432    5.51293412050221   11.85835080217016
H         0.10517991584404    6.01479554165242   11.56415659508288
C        -1.19355006320186    5.07230126042817   15.21764942028879
H        -1.19051090975263    4.27637217314489   15.95678944219642
H        -2.23034971921388    5.21598402323260   14.93010247373373
H        -0.87127701073037    5.99096150315529   15.70730807346899
C         3.26551818375629    4.14064343674284   11.02822989963613
H         2.67859246159129    5.03362163455822   11.22364508438045
H         3.15731277599197    3.93130282554073    9.96865996262567
H         4.31498970432422    4.38060142266630   11.19723763757582
C         3.49582333995653    1.11879288336761   11.27607120009565
H         4.48375152071843    1.31897588612398   10.86659057698378
H         2.87402468448267    0.79967386605723   10.44616540348274
H         3.56619941237053    0.26782797269730   11.94604463512624
C        -0.68180692164668    0.69144998944138   16.10112332338765
H        -0.42314323015317    0.15320413340431   17.01062968225674
H        -1.27263323853951    0.01245384516955   15.49525139806964
H        -1.33994332890787    1.51388968088596   16.36256352658402
C         2.13159607749071   -0.15839075481112   15.32698592390613
H         2.93373281921410   -0.10469263318398   14.59641131836103
H         1.67361672520206   -1.13504991205672   15.20522501988362
H         2.57626651299461   -0.13889446386100   16.32168778656405
C        -2.23212492178952    2.44482359931360   11.70581992698903
C        -2.89491789300476    2.88363609427023   10.56240705970189
C        -4.02966700787874    3.69106230634308   10.60121349433481
C        -4.56103565543551    4.08914224527531   11.82204585585662
C        -3.94330735066830    3.65130343522104   12.98773899285250
C        -2.81940772110192    2.84870232142004   12.90053791231832
C        -1.25766697651020    0.04332756851474   12.34774028061129
C        -0.22014043528740   -0.82474390977436   12.67210444889955
C        -0.39667236293604   -2.09394489357562   13.19464314180087
C        -1.68482690079207   -2.57133071049170   13.40656291039229
C        -2.75765522645244   -1.75365880696701   13.07223432707562
C        -2.53138304826799   -0.48132542727389   12.55171794992097
C        -0.24303009389141    1.38210786891579   10.27552037357671
C         0.33488497394559    2.50302283485441    9.68852618481162
C         0.93820784293567    2.51065444010655    8.44311847907091
C         0.97146457139563    1.34028443475021    7.69394902105282
C         0.38207376668568    0.19838949556045    8.22303507928263
C        -0.21079206090265    0.23733569631231    9.48315737791996
B        -0.91193587527442    1.50697650268905   11.74561294386525
F        -2.45335001671128    2.53770701676307    9.34452575686386
F        -4.59971748263437    4.09493790089089    9.46605225234951
F        -5.62901851266643    4.88394821394254   11.87808633229374
F        -4.40893414426816    4.02687281216462   14.18707602407275
F        -2.25728479676912    2.43600393057263   14.06580411216629
F        -3.62089622683609    0.23833188845297   12.24686388034147
F        -4.00467687269649   -2.18387799691097   13.26318352470293
F        -1.88214101552155   -3.78010242522537   13.93128630732280
F         0.66792481224182   -2.83976673053209   13.52122571466150
F         1.05595765013325   -0.40680293441173   12.46889501849938
F         0.31287864892979    3.67339871305383   10.37698958378748
F         1.51125618199010    3.63086358771942    7.98154433521612
F         1.56743260777018    1.31451004261685    6.50253917219846
F         0.39669319869466   -0.93887206146346    7.52803937533290
F        -0.76457435300488   -0.90522561678300    9.91436398250063

