49
CSD_code = QIDTAZ | q = 0 | S = 0 | Stoichiometry = C22H20N4O2Pd | MND = 4
Pd       -3.12314328928427    2.58279828125504    6.83550790389340
C        -1.48003337842072    5.61497555560149    7.09475928663103
H        -0.41714267565824    5.78046063866353    6.92231212721179
H        -1.97104135482650    6.58545565070852    7.09016365554507
H        -1.87041930852671    4.98862174036296    6.28358634647774
N        -2.20391034109326    3.69383878160154    8.37355698724242
C        -1.65953460880543    4.91125902375053    8.40458404758838
C        -1.20967630170153    5.47492165986803    9.59497534270842
H        -0.79191643350645    6.46962263019867    9.58725533232487
C        -1.29375182492145    4.74569383075449   10.76958425871071
H        -0.97089819375118    5.17430769954062   11.70617762235483
C        -1.74702446018454    3.43965227785970   10.70575695622393
H        -1.76594769102746    2.78516228409827   11.56284475257085
C        -2.18023199983843    2.93403303268182    9.48716042428741
C        -2.48044034812860    1.45419060566290    9.34731313937661
O        -2.44828849093071    0.71331664563364   10.32402638839769
N        -2.66726430549571    1.14436402625737    8.06047581301060
C        -2.89271579842274   -0.11729039720639    7.50529048170645
C        -2.67362912843718   -1.32652990297231    8.15222416432647
H        -2.33010425044056   -1.31595968601593    9.17473670202772
C        -2.90082680003631   -2.52992628071651    7.49896211295902
C        -2.66352242180513   -3.82061459897523    8.22304084351635
H        -1.89391104459624   -4.40764120442348    7.72132073869254
H        -3.57301449467200   -4.42068485254387    8.24761357835483
H        -2.34492714944814   -3.63169735981545    9.24490726971972
C        -4.76661853105006    5.61476160382087    6.57631537218905
H        -5.82954492634013    5.78007285040017    6.74869944986393
H        -4.27575798770270    6.58531519092071    6.58101415247091
H        -4.37619458211458    4.98840991876498    7.38747257764309
N        -4.04239220068199    3.69381153075604    5.29744558261857
C        -4.58692137157931    4.91116409413379    5.26645306650450
C        -5.03677367146007    5.47483390922270    4.07606351037216
H        -5.45467296756267    6.46947709295037    4.08380993196965
C        -4.95251669720867    4.74568128382673    2.90141965396887
H        -5.27535563088508    5.17430605881325    1.96482666208853
C        -4.49910336319090    3.43968730111311    2.96520715908040
H        -4.48004349978589    2.78524881396165    2.10808240472963
C        -4.06592395718804    2.93405148983020    4.18380697914536
C        -3.76559360094496    1.45422522548761    4.32362155095488
O        -3.79771315207587    0.71336684470202    3.34691247618807
N        -3.57888230740273    1.14437922128804    5.61047515830206
C        -3.35352775192462   -0.11728331491803    6.16567920545796
C        -3.57271917433297   -1.32651401349767    5.51876502092445
H        -3.91623290267176   -1.31592903652557    4.49624837548633
C        -3.34565347688639   -2.52991901678767    6.17205643003340
C        -3.58312281475869   -3.82060066047311    5.44801815013063
H        -4.35281364079558   -4.40750728882384    5.94975759796100
H        -2.67371165956032   -4.42079286210780    5.42346715536141
H        -3.90169403793654   -3.63167631868875    4.42614610069636

