99
CSD_code = QIDWOP | q = 0 | S = 0 | Stoichiometry = C36H48N2O4P4PtS4 | MND = 4
Pt       -0.00095018852171   -0.00014720892668    0.00052801576617
S        -0.44451300143432   -2.32178202032698    0.27022784174586
P         0.13837708617920   -1.88144028911029    2.13968606208283
N         1.62888672975353   -1.47017124984173    2.55722926330984
P         2.81724507064261   -1.07152781248069    1.53779240473857
S         2.31396954986229   -0.48657419854097   -0.32136928273998
O        -0.11355573975576   -3.18015634256406    3.05079327584751
C        -1.36918586281359   -3.77059644444279    3.08343625522781
C        -1.66534716589197   -4.79223619076417    2.19472496462398
H        -0.92908830089852   -5.08429229884026    1.46175315737199
C        -2.90257582736312   -5.40860846889579    2.25587108996613
H        -3.13593476055795   -6.20260768873946    1.56282616399099
C        -3.83734351092223   -5.00552759418167    3.19441167740995
H        -4.80257950583424   -5.48724558904282    3.23766806159950
C        -3.53562402744938   -3.97967552067296    4.07377004305925
H        -4.26370683482459   -3.65685068725611    4.80267505178308
C        -2.30171991439021   -3.35515105097753    4.02079795387612
H        -2.05695312201045   -2.54943687140459    4.69646859333243
O        -0.89622652296190   -0.77999697282664    2.70075157604342
C        -0.54256498606465    0.09848048911962    3.71070857013589
C        -0.85029585260512    1.44020090530434    3.53848527311243
H        -1.32476160554860    1.75130305111154    2.62091340370719
C        -0.52342699783982    2.34317973308526    4.53376778296454
H        -0.75578391172795    3.38863107852162    4.40026998991141
C         0.11236758100049    1.91243962723938    5.68712439869206
H         0.37259319115367    2.62136030862343    6.45877728326196
C         0.42295211543211    0.57257497668346    5.84570458674887
H         0.92654183921352    0.23381019210246    6.73897582462502
C         0.09663901934251   -0.34205611304287    4.85843485782929
H         0.34854628326362   -1.38720090655896    4.95833241490307
C         3.93531583080220   -2.54442306364183    1.36798299367227
H         4.21544364992091   -2.82881847641802    2.38808342370500
C         3.12380093904898   -3.66947207577981    0.73959453099319
H         2.22814607750360   -3.86215048154107    1.33210996580899
H         3.70953987295830   -4.58544139565227    0.68908820855592
H         2.81548021383479   -3.39551352599665   -0.26900721350469
C         5.16658243821052   -2.19873957030040    0.54407812322210
H         5.77880514887700   -1.45096448522713    1.04450940340018
H         4.86565712925174   -1.80691912048588   -0.42629529354347
H         5.77375715690846   -3.08841697370290    0.38478891345716
C         3.75075719781979    0.27242952680407    2.40236339853036
H         4.58464630986269    0.55039430172696    1.74702255248885
C         4.25890857109794   -0.22486011127513    3.74823315537881
H         5.03177225046220   -0.98148985436103    3.62889722146180
H         3.43127403797787   -0.65193673665946    4.31081427879395
H         4.67565910788047    0.60426557076330    4.31774893258163
C         2.81515728921568    1.46348561217674    2.56631332948898
H         2.39131707122571    1.76430285791703    1.60723045378425
H         3.34931879410632    2.31460123794828    2.98415323030646
H         1.99686677507093    1.20521207390386    3.23577523227048
S         0.44240681345935    2.32170989165100   -0.26836806624441
P        -0.14003807887719    1.88216255948395   -2.13811431933376
N        -1.63058070214210    1.47171623842296   -2.55624214423239
P        -2.81889511046570    1.07070364772024   -1.53766039175779
S        -2.31644391869506    0.48589274113808    0.32191679277563
C        -3.93899353180618    2.54200284701325   -1.36757434781629
H        -4.21905784783102    2.82660770865508   -2.38762889074833
C        -3.12924353113292    3.66775921485075   -0.73816364541574
H        -2.23366543339002    3.86209020316462   -1.33024610109883
H        -3.71629713855171    4.58286433791686   -0.68720824120722
H        -2.82089469727421    3.39353592034776    0.27036110068164
C        -5.17017678542830    2.19424851234922   -0.54440273559032
H        -5.78106992371968    1.44575983682796   -1.04539550038186
H        -4.86916577392619    1.80253342012267    0.42598729031323
H        -5.77872691128296    3.08298461075180   -0.38510037941975
C        -3.75009318003675   -0.27386356145640   -2.40387610782146
H        -4.58421726475185   -0.55345376256665   -1.74954305156566
C        -4.25763542489932    0.22397803379636   -3.74978425167177
H        -5.03205229347094    0.97902143292875   -3.63047528009598
H        -3.43014552290951    0.65326512264046   -4.31089725516483
H        -4.67214998390408   -0.60526337841403   -4.32076131889881
C        -2.81279931789439   -1.46355943242646   -2.56803303977418
H        -2.38969196398157   -1.76487656428148   -1.60877809043562
H        -3.34540580707379   -2.31490053590007   -2.98739420748242
H        -1.99407012222600   -1.20357176756924   -3.23631482192163
O         0.11236134206386    3.18105832042979   -3.04878800380544
C         1.36813481961743    3.77116773378098   -3.08128069971210
C         1.66436138953389    4.79291876390041   -2.19271693390424
H         0.92803297693743    5.08525735069581   -1.45992564879364
C         2.90170706791569    5.40905862654045   -2.25382243109257
H         3.13510834879283    6.20318513827461   -1.56093968527932
C         3.83654741564918    5.00558559340688   -3.19212694739941
H         4.80187343039201    5.48712249652710   -3.23535708773879
C         3.53478806805713    3.97956939195981   -4.07127744961794
H         4.26291909782106    3.65642294630272   -4.79999040645061
C         2.30074482821526    3.35531699694348   -4.01838290605958
H         2.05592009549939    2.54952473908110   -4.69394036781763
O         0.89472020539744    0.78071099669215   -2.69881260785107
C         0.54354692064589   -0.09660752739986   -3.71055435732161
C         0.85464890067467   -1.43785831444644   -3.54055583151766
H         1.32940943427426   -1.74927588556428   -2.62326187706435
C         0.53086866602458   -2.33988050110378   -4.53768700367978
H         0.76599190782497   -3.38494216604117   -4.40598307914378
C        -0.10517445648929   -1.90870073010130   -5.69074385797080
H        -0.36282859037345   -2.61688072391432   -6.46393902653519
C        -0.41920892672829   -0.56938240072668   -5.84706967552419
H        -0.92295317779779   -0.23030933675628   -6.74013352883591
C        -0.09604201621668    0.34433813238135   -4.85790159430793
H        -0.35056098391535    1.38900892937153   -4.95613338411269

