44
CSD_code = QIDWUY | q = 0 | S = 0 | Stoichiometry = C19H6F16N2Zn | MND = 3
Zn        0.21969659291763    7.81957857674381   14.93482528030355
F         0.79737387108806    5.27719117134093   19.55254491398339
F         2.56333784386526    6.30593837996613   18.87367847233641
F         2.23559440796762    4.26544894213109   18.32450028631333
F        -1.63109138578711    2.96043998364108   16.09792284804906
F        -0.27809906584243    2.57733442845361   14.47853429298612
F        -2.10661352580332    3.66386561265455   14.13532786243394
F         2.74486256369308    8.71212909015066   15.89947742633088
F         3.65392109773947   10.90392915245893   17.27382597777474
F         2.59987372373318   11.49509651032361   19.72422460316074
F         0.62943873161936    9.92590204337232   20.76177097778993
F        -0.26352689841798    7.76233135840419   19.38109584316539
F         0.51885469627396    4.13278696260917   12.41695683114857
F        -0.59517045134056    4.27660895778396    9.94323064182726
F        -2.60562943541070    6.04525033665034    9.44583036693760
F        -3.47782749060041    7.70184364892677   11.43673194385915
F        -2.33575020991549    7.54090477696265   13.93055246225946
N         0.81968147507140    7.11277334629755   16.86393691672173
N        -0.38504627717972    5.82152481878288   14.49997861878938
C         0.86110480785782    5.85880172719860   17.23385982497753
C         0.27578386788671    4.79006857475737   16.56359898291963
H         0.30885114292857    3.83636936204084   17.06780182348118
C        -0.36231256198875    4.81006176666689   15.32808553502725
C         1.61044217426706    5.43430809365376   18.50487041514697
C        -1.09114927527450    3.49961422804736   14.99955022362567
C         1.27627778706729    8.16577057537741   17.64194789234438
C         2.25501596811104    9.01225845895455   17.11734717203839
C         2.71294938279056   10.12581871915430   17.80377633983995
C         2.17222568460471   10.42897659993092   19.05210063616598
C         1.16878896780908    9.62216189641911   19.58449040104847
C         0.72717790824497    8.50634802474450   18.88384048839110
C        -0.94742131543922    5.78924066237484   13.23377649044457
C        -0.49154607878744    4.97482936123188   12.19098137459852
C        -1.04696948333748    5.05854717611761   10.91953689935383
C        -2.07166159631766    5.96691342593846   10.66225691303229
C        -2.52071939793657    6.80888882043165   11.67843686142625
C        -1.95056497439170    6.71395202018599   12.93747354067145
C         0.44133288841175    9.56220265334547   13.93731666057507
H         0.16581983138900   10.38317850561355   14.59918824916218
H         1.50314248342429    9.67848763658826   13.72391698291641
C        -0.33598652560597    9.71503325021986   12.63253883896129
H        -0.09959748968412   10.68373919168460   12.19140469330547
H        -1.40913392726487    9.68279204945847   12.79843572629844
H        -0.06653053246083    8.94645912220734   11.91082046805828

