99
CSD_code = QIDWIJ | q = 0 | S = 0 | Stoichiometry = C36H48N2O4P4PdS4 | MND = 4
Pd       -1.20828337597472    7.85329805194056    6.08136705872904
S         0.62002861388518    9.25651111620883    6.64432984785210
P         1.42590618130838    8.27414753356095    8.18047028195086
N         1.56268940100586    6.67640838290772    8.15701372474716
P         0.20677295389596    5.79123337704249    7.97123967352908
S        -1.49971045473311    6.82296601952414    8.18639596248029
O         2.90298672728244    8.86879568854363    8.25272390482061
C         3.93727008199701    8.24431696107014    8.92381523412804
C         3.73424546393339    7.55678566301057   10.10773702151901
H         2.73564243888181    7.48933644346441   10.51097806689015
C         4.81125479632469    6.97056561602044   10.74926155260919
H         4.65152037474184    6.42955232124583   11.66997727906585
C         6.08460176304618    7.07871803858479   10.21699181257270
H         6.92218741257155    6.62041005366317   10.72069487068824
C         6.28130255269277    7.77693558603106    9.03719170635972
H         7.27223808238530    7.86599252641511    8.61807148987041
C         5.20994578438611    8.35904447662819    8.38373443457667
H         5.34080505524277    8.90019895371367    7.45970299305991
O         0.70615810769128    8.69203080882109    9.57001202740057
C        -0.09017422507783    9.81457405842756    9.70323459773233
C        -1.35436171605338    9.66331116553417   10.25433093325737
H        -1.69229788226855    8.67859279815146   10.53505990489716
C        -2.16034365277735   10.77696889187912   10.41106612446051
H        -3.14483980369376   10.66244439981481   10.83905056517157
C        -1.71329331049489   12.02654362652816   10.01382242068794
H        -2.34872416974950   12.89155079037373   10.13446975750860
C        -0.45161997440665   12.16609520579079    9.46072416657768
H        -0.09815479667141   13.13683897140857    9.14691832085865
C         0.36663635310311   11.06104053538800    9.30429593487719
H         1.35280495796862   11.14965751917766    8.87172830871047
C         0.47461688078298    4.81193764960743    6.40009506974403
H         1.41903987908393    4.29524509119720    6.61633721715627
C        -0.65115086351057    3.81524139280691    6.17138749464346
H        -0.71319981862572    3.09224210163215    6.98227822839594
H        -0.48641458597117    3.27846915773994    5.23873672716207
H        -1.60365558797998    4.34139557400525    6.09951707866319
C         0.68937859951901    5.71553021186623    5.18855456042581
H         1.31802324728881    6.57935575734895    5.45241115912637
H        -0.28303868782785    6.05764430080506    4.77960520905359
H         1.19338293973044    5.16228114068194    4.39755834245723
C         0.23778536504187    4.55639041278808    9.35294278653321
H        -0.58566320471440    3.85306882976588    9.19093598345611
C         1.57621831622814    3.83007534566420    9.36750045482253
H         1.66428122590225    3.13465660556482    8.53583689114253
H         1.68373984000578    3.26534078447915   10.29232141420533
H         2.38608769035865    4.55560049728270    9.30721525466685
C         0.00322643376315    5.30980809301687   10.65652895701342
H        -0.98172627459300    5.77293336348479   10.65709067716219
H         0.75180769426835    6.09236633168496   10.77204895620496
H         0.07173536976054    4.63295119573861   11.50642150733078
S        -3.03625858513929    6.44994105797910    5.51814617259238
P        -3.84210853136033    7.43227679728241    3.98205287368031
N        -3.97884802516633    9.03002134075937    4.00542629247041
P        -2.62293302252439    9.91517652168503    4.19127013578888
S        -0.91636648405971    8.88342532238038    3.97631309390225
C        -2.89082497849096   10.89447189174388    5.76238082393975
H        -3.83526368340424   11.41116260926374    5.54619366927332
C        -1.76508556637812   11.89120010331441    5.99112233653803
H        -1.70306504904682   12.61421580876183    5.18024154772817
H        -1.92983885344082   12.42795594277428    6.92377834718548
H        -0.81256273312478   11.36507438138431    6.06297650701562
C        -3.10558174796980    9.99077888430606    6.97385422434652
H        -3.73421348522215    9.12698747920009    6.70987885049712
H        -2.13316536337373    9.64861213685612    7.38276478851186
H        -3.60961672213684   10.54393126306230    7.76489861521713
C        -2.65390207035530   11.15001516409392    2.80956340960101
H        -1.83046621500394   11.85335357088893    2.97155696233793
C        -3.99235537602158   11.87629421782486    2.79504737934643
H        -4.08042179096409   12.57165388353149    3.62676033860478
H        -4.09992578484220   12.44107829343128    1.87026347288119
H        -4.80218872286535   11.15072688116666    2.85531717745525
C        -2.41933798511967   10.39659113332857    1.50598428996250
H        -1.43438128563985    9.93347303746563    1.50542383428272
H        -3.16791144826991    9.61402531776275    1.39047193474035
H        -2.48785253177050   11.07343909057813    0.65608479301556
O        -5.31920339846919    6.83767161716682    3.90980673891116
C        -6.35349302091663    7.46212918526020    3.23870230003648
C        -6.15049025435783    8.14963798799647    2.05476227659116
H        -5.15188933363893    8.21709296313883    1.65151707497079
C        -7.22751589499150    8.73582544213060    1.41323264657722
H        -7.06779632053387    9.27682230499965    0.49250573899719
C        -8.50085674795820    8.62766260672515    1.94551368519915
H        -9.33845333356039    9.08594880069344    1.44180809916524
C        -8.69753598524054    7.92946219057531    3.12532734463038
H        -9.68846940155864    7.84039409939865    3.54445159267066
C        -7.62616482090333    7.34738793742252    3.77878995785850
H        -7.75701532891462    6.80624615587547    4.70282976392719
O        -3.12238642797449    7.01432340175280    2.59251808101472
C        -2.32603257943250    5.89179441118204    2.45928506662360
C        -1.06183814354777    6.04311077460506    1.90821466096274
H        -0.72395513593010    7.02784461043394    1.62747764173182
C        -0.25578795077813    4.92949664988942    1.75153436187279
H         0.72872276126311    5.04407082100140    1.32359683156233
C        -0.70278935395415    3.67990660477195    2.14878765268564
H        -0.06728631075015    2.81494070006799    2.02821800134915
C        -1.96449566624933    3.54029136658837    2.70179151149795
H        -2.31793204139002    2.56952600943728    3.01556338088355
C        -2.78281761180403    4.64530735751093    2.85818041846655
H        -3.76900985567696    4.55662445251888    3.29067935394246

