127
CSD_code = QIDZEK | q = 0 | S = 0 | Stoichiometry = C53H67Cl2N2OPRu | MND = 5
C         5.29438152009166   12.10336816725112   14.98603685163339
H         6.24669772869242   12.04908706241196   15.52303924510764
H         4.54232871211124   11.53376634058185   15.53005873282894
H         4.97405745973039   13.14773767015715   14.91369948818648
O         5.38196157698329   11.49879189709834   13.71979131287798
C         4.68364952673514    9.30586364395188    9.15391954800387
C         3.76943951227143   11.30617123305719    9.92685002385574
H         4.26514980674767   12.28158048371141    9.91466430758385
H         3.05202503840702   11.28949922959111   10.75592642294245
C         3.13300573647759   10.94084066739985    8.58373223753346
H         2.04763785926019   10.82273046899236    8.64131375179043
H         3.35763849751026   11.67351703277426    7.80267837919572
C         3.38738488069859    8.96223678995070    7.08754859729020
C         2.35293436671914    8.02734150228491    7.15428949863124
C         1.98043463570290    7.37586972913718    5.98950570028317
H         1.19311373555940    6.63646905912241    6.02598880638621
C         2.59846943146247    7.64722107026998    4.77703332137064
C         3.60443989440950    8.60039920484349    4.73631905781426
H         4.09080397685361    8.82080652986856    3.79721320934634
C         4.01831892652554    9.26441202083163    5.88119357059874
C         1.66609741591048    7.74270917096582    8.45320554230412
H         2.39402755953325    7.49323725282635    9.22467340106198
H         0.97053171250612    6.91510668048324    8.34502705546028
H         1.10462001839879    8.61314695732777    8.79341348807733
C         2.16387733391678    6.93251828641647    3.53440978259536
H         1.91511520020025    5.89716461468447    3.75749282424471
H         2.94766827859596    6.95589798915884    2.78186297975932
H         1.27582576209881    7.40989795405116    3.11858472605759
C         5.11613218057166   10.28149468442789    5.82865242313192
H         5.68278891355138   10.17876270493652    4.90778392171472
H         5.79321172273999   10.15485460079749    6.67174917700542
H         4.70793346816083   11.29255901244706    5.86517537545064
C         5.49941602099318   10.11961201951298   11.31804295513605
H         6.14048828238776    9.22503859875741   11.19509414556434
H         4.81892372704700    9.95149734894311   12.16271770162823
C         6.36556666466118   11.32103081256517   11.58853395569719
C         7.26356869877390   11.75767129630728   10.62793075192867
H         7.33953414440136   11.21746862698702    9.69445560980311
C         8.07369987280758   12.85513579288757   10.86225936641649
H         8.77114397282627   13.18157026655623   10.10688120587727
C         7.98605440628699   13.51881825353182   12.07103384342292
H         8.61331102976373   14.37544444457004   12.26884312583702
C         7.09944959125835   13.09299888072333   13.04649037189602
H         7.05412840146471   13.62527498060344   13.98338476688093
C         6.28193256991345   11.99338491662384   12.81637372555926
C         5.35212224076109    6.68239161422692    7.85388715235241
C         4.36268816628866    5.65300602395626    7.94897803079851
H         3.86498905122470    5.37549916396768    8.86175909815647
C         4.16227613919930    5.03968261794006    6.74225041938564
C         5.17917343932297    5.50637898129328    4.40916407518694
H         4.58511814400674    4.77836132682905    3.87717525915839
C         6.09700579430581    6.29291372045305    3.71790402693203
H         6.22249461167898    6.15309178128419    2.65322312064698
C         6.84508169907684    7.24510394621315    4.38206386346506
H         7.56156543078727    7.84156529714038    3.83571418650956
C         6.68334479050636    7.45873100966023    5.74788198217420
H         7.27025593735822    8.21533002601736    6.24252486596313
C         5.77106292712240    6.69168438626340    6.44958097833440
C         5.03537153939797    5.68912488009503    5.76723198769897
C         3.26209196698719    3.93134017423938    6.49292453185702
C         2.04050045007510    3.85883667675593    7.16776918637369
H         1.78143676443585    4.64237707745735    7.86279373909272
C         1.16928435140978    2.81278091234422    6.93988187009364
H         0.22396304678653    2.77564064215476    7.46233845465431
C         1.50304475728626    1.80902749141389    6.04388646373890
H         0.82002470821930    0.99172896753125    5.86427738915781
C         2.72267247584747    1.85417967632659    5.38868699271475
H         2.99629238555039    1.06355063140712    4.70442643451022
C         3.59490393898874    2.90322931846249    5.60839007514444
H         4.55867903537167    2.91126138202832    5.12220522697026
C         9.06606572207419    5.98398315741408    9.37823782782523
H         9.47775392367906    7.00326786984297    9.35759084850120
C        10.12292525244382    5.04624714275250    9.95463040616174
H        10.32475168465519    5.26878927611311   11.00424413708146
H         9.77854089742225    4.01295850420310    9.88365149672262
C        11.41509365983847    5.19006692978514    9.15011290775549
H        11.78661871056206    6.21327689707818    9.24391026649965
H        12.17698416415044    4.51929663315822    9.55505723670385
C        11.17380258189347    4.87407143815200    7.67651391245266
H        12.09933383811126    5.01064237131050    7.11321413803663
H        10.87411713353515    3.82769165484681    7.57609635008365
C        10.07617139614426    5.76917057673314    7.10796141171510
H        10.39788850029356    6.81202109577885    7.13953786645094
H         9.88304620521098    5.51005517424961    6.06505174761069
C         8.79397903713780    5.61407242719824    7.92046863942137
H         8.44327645232880    4.58510067449086    7.83765652186057
H         8.01885818560493    6.26802135768524    7.51881080815058
C         6.79507456634817    4.54244816694042   10.83266417861548
H         5.81069604134953    4.81879535150285   11.24028032308404
C         7.51870084086302    3.69619980671419   11.88048972801427
H         8.45820930188290    3.31377747367768   11.47915057687035
H         7.74666509277304    4.26771337134900   12.78038055362533
C         6.62101291744711    2.51753597165695   12.26316057881894
H         7.12260992444911    1.90509736925148   13.01651183836215
H         5.69752573227458    2.90033608312981   12.70366736299531
C         6.27998252399744    1.66369800263508   11.04501988506123
H         7.19528472219529    1.21416872009467   10.65092878892811
H         5.61089765534481    0.85214427329045   11.33826484512577
C         5.62831440765843    2.51517397709002    9.95894816374565
H         4.67402390403642    2.90461588840911   10.31841908373886
H         5.42812757637842    1.90811811296510    9.07326952393386
C         6.54464353505209    3.67942160036322    9.59583726868244
H         6.09433813875004    4.28243589134939    8.80335326012767
H         7.49117765660511    3.27647697685126    9.22899890430160
C         8.15002241933207    6.85368954552370   11.98224602206801
H         8.86484169903406    6.11233084708492   12.36318857654755
C         8.89092371363021    8.18170738046404   11.79474069226178
H         9.76254584227738    8.03712935130783   11.15325015169276
H         8.24728279827796    8.91445327112611   11.29913700429124
C         9.36150670429644    8.75273748687029   13.12987956463006
H        10.10837515312130    8.08284900176221   13.56531229169093
H         9.83832917625794    9.72036486971390   12.95795049925520
C         8.20055401405124    8.90790484757011   14.10509921706926
H         7.47757883991229    9.61988428670963   13.70204358286481
H         8.56527718869545    9.30173730733191   15.05672768169722
C         7.52269504638246    7.55984840145330   14.32122865060031
H         6.68715549020397    7.66569024831538   15.01628044185079
H         8.23889256321081    6.86076375949137   14.76243780912918
C         7.01228764800578    7.00062584125685   12.99719033308409
H         6.53216059349818    6.03603340268429   13.17133963070061
H         6.24063121151678    7.66771805690534   12.60773478026883
N         4.74776865614081   10.24610156456248   10.09757471220593
N         3.76437347241502    9.66082714340347    8.26523820863842
Cl        7.66064092765595    8.98015809899569    8.47613090414620
Cl        4.21997475358517    6.90635723542643   10.90649871921373
Ru        5.89243491004132    7.70666258044635    9.40020322079996
P         7.48969173213568    6.20981157774181   10.35228222136922

