94
CSD_code = QIFBUF | q = 0 | S = 0 | Stoichiometry = C39H48N2O2PRhS | MND = 4
C         7.68946303994337   -0.87455753640376    4.32087313158254
C         7.87849746988708   -0.40754163762982    5.61827245490146
H         7.87548023821480    0.65676741964004    5.79431781911655
C         8.07534899444934   -1.29175573837472    6.66108218470735
H         8.22051023407587   -0.91954248759260    7.66534295132639
C         8.08706337396505   -2.65555716399055    6.41853036569275
H         8.23879624206365   -3.34825706449103    7.23351734859434
C         7.90924193694065   -3.12836754559056    5.12767207299196
H         7.92564319944284   -4.19144156937037    4.93621984016566
C         7.71400867774467   -2.24659139220508    4.08205700007279
H         7.58439371790852   -2.60304402729146    3.07267598529231
C         7.46099085481101    0.08548390575605    3.21015796370437
C         7.06203181107899    0.06693338112731    0.87718550678082
C         7.44150676793679   -2.11012774516299   -0.09388759176155
C         8.46224788770397   -2.74969963023737   -0.78994643883692
H         9.13121633220291   -2.16767684525480   -1.40683943251685
C         8.61528558736087   -4.11994123797153   -0.68917367978373
H         9.41215811375807   -4.60884294958170   -1.22991712964307
C         7.75720181418533   -4.86266674134147    0.10440321750803
H         7.88119647443746   -5.93222954268532    0.18385154425795
C         6.73558210445803   -4.22777776287973    0.79163780793461
H         6.05611159213756   -4.80278916152024    1.40373014541773
C         6.57099764135814   -2.85896872939562    0.69167343102862
H         5.76814088021974   -2.36324451938678    1.21523392055447
C         7.34547314591616   -0.17943399096482   -1.52904418368740
C         8.12154352387255    0.94251063925962   -1.80120325189648
H         8.66166076568407    1.42733592701981   -1.00170822579679
C         8.19396722568245    1.43453483428639   -3.08995439777960
H         8.79487800073864    2.30838674951332   -3.29316948617183
C         7.50906906872755    0.80798349660672   -4.11825280028550
H         7.56935101000524    1.19543367422868   -5.12414240178040
C         6.74856084191525   -0.31773602387022   -3.85147081496190
H         6.21253602067522   -0.81152684540317   -4.64846723965337
C         6.66381259575456   -0.81217038593587   -2.56336514711478
H         6.06794009123998   -1.68732072337657   -2.34915948492998
C         6.62847175190498    3.45243552469993    5.82825192148110
H         7.29388951965137    2.58597775977969    5.92313597716525
C         6.70353596232254    4.24489982655027    7.12828306249319
H         7.70495940203276    4.65772126720205    7.27047245142920
H         5.99066646593938    5.07066623243851    7.10720817101055
C         6.35018386235491    3.32167478282572    8.29512001329717
H         7.08455709606192    2.51461273506716    8.35540681658157
H         6.39055562096446    3.87922689522562    9.23368130298281
C         4.95730885724671    2.72491477630272    8.10675845506305
H         4.72818565803198    2.05349111246892    8.93679381923943
H         4.21740439277291    3.52907587035795    8.11563781774483
C         4.86137161035229    1.96711626132888    6.78385293358833
H         3.84887329152129    1.57996265667070    6.65252315114322
H         5.54335133245637    1.11380732169060    6.80010676474020
C         5.22018624385811    2.89021003410762    5.62276540165537
H         4.48824119637924    3.69696870968744    5.57109913772026
H         5.18342094418425    2.34348728784241    4.66890989973120
C         9.08353462567793    4.43484023981634    4.50915381143781
H         9.28866100775196    5.19682486739654    5.26918252581822
C         9.74282019058159    3.12248719352685    4.93137606445411
H         9.41557834388136    2.84071902638159    5.93422234855667
H         9.44326144597166    2.33447986046906    4.23607008277550
C        11.26480745722001    3.24473941676960    4.93479326975889
H        11.56810888424393    3.99158246390711    5.67375128644094
H        11.70467116600341    2.28865965338103    5.22673636821679
C        11.77789864648848    3.65877635121436    3.56095965444908
H        11.50833106563047    2.89486045560839    2.82860780774717
H        12.86653215411038    3.74231447142680    3.57603555752146
C        11.15397896595022    4.98947361532467    3.15762150591449
H        11.50555124577389    5.28590468655333    2.16737502748095
H        11.46092654328439    5.76337974793050    3.86640810446759
C         9.63297959627725    4.88159652308361    3.15083221624849
H         9.31704626610994    4.14092382678624    2.39787875179275
H         9.20002443373115    5.84405366733379    2.86886890225220
C         6.65110458624840    6.00615928432565    4.16260927128532
H         6.94481378401748    6.29757239959118    3.14401163980176
C         7.23268857433801    7.04706144082963    5.11775467369386
H         6.93082371611966    6.83938551091480    6.14409432654316
H         8.32261349893894    7.04834691035744    5.07680585161699
C         6.72843484386055    8.43482579733087    4.71690848680842
H         7.08895288573401    8.67141742892372    3.71310926033095
H         7.13339522179578    9.18303460294714    5.40208399327188
C         5.20395553434123    8.49218275964727    4.72841620844509
H         4.84283652800911    8.32449295661740    5.74621299507022
H         4.86911671707632    9.48303701619148    4.41568523149525
C         4.62161580123295    7.42719201980597    3.80355190560447
H         4.92358232412118    7.62842592233184    2.77390934703142
H         3.53086128473604    7.45378929701995    3.84362639634382
C         5.12434421280127    6.04803465838002    4.21888963634480
H         4.78751712749866    5.84670833584065    5.23732182684136
H         4.71179961466414    5.27685575285628    3.56055123954136
C         6.13704065597438    4.33756868808553    1.47654359985898
N         7.38210448708375   -0.49284778592523    2.02304009239305
N         7.27470302486845   -0.71493585286737   -0.22538244515847
O         7.43978463901276    1.31625820246202    3.47337368825689
O         5.77158242770054    5.21167293197758    0.82312440827068
S         6.28960534096457    1.56453037523801    0.60668047598794
Rh        6.75466084252144    2.92348424546766    2.43928910072507
P         7.24507980312081    4.23492095099381    4.25707542216519

