55
CSD_code = QIFCAK | q = 0 | S = 0 | Stoichiometry = C24H21N4O4ReS | MND = 6
Re        0.47802314490050   14.41074183200259    2.23704278165447
S         2.23189773111698   14.93824410231431    4.02251113821846
N        -0.37957710097064   13.36239881122042    3.86910765007519
N         1.55709808227747   12.58572120294098    2.27441372404165
N         1.84678259926595   18.64020706323511    3.04034371434704
N         3.20299070582549   17.31177735661741    4.84351857587307
C        -0.81903088724241   13.82060187990146    0.90710439283200
O        -1.57852119086988   13.45304961563647    0.12575609478742
C         1.66764477655786   15.26253246364656    0.94763376583998
O         2.47756317717969   15.70163099942713    0.26888030520519
C        -0.50323917608766   16.05629130327069    2.60820189347049
O        -1.10148020734629   16.97729120892344    2.93411733337102
C         2.49702290373233   16.66208956019961    4.03132025901320
O         1.88786194180591   17.23465767461229    2.97143572210385
C         1.44813273876163   19.24939675198939    2.00778046419333
C         1.06027138092647   18.63924766472383    0.69532665015179
H         1.96377863780630   18.38538710794143    0.14102476936873
H         0.47146281258334   19.33529426361187    0.10516980441157
H         0.50030365867389   17.71600236532172    0.84395044142976
C         1.38276014563287   20.73748131272703    2.11941258349308
H         1.76008612240520   21.05523717518947    3.08653288838424
H         0.35077827660710   21.06713628941540    2.00686256804335
H         1.97352932928320   21.19266485504723    1.32617834831431
C        -1.38538186751063   13.79706762199131    4.62645686672711
H        -1.92366736449172   14.66272647757438    4.26264028960485
C        -1.75256316971298   13.20187964197459    5.81740186674384
H        -2.57010452885976   13.60566004593871    6.39211063270952
C        -1.04357507297659   12.09095621108952    6.25154776371875
H        -1.28865703444953   11.60473075313355    7.18302701122954
C        -0.01388128767615   11.61803432005143    5.46295112639096
H         0.54907862034819   10.75569521645395    5.77871931684123
C         0.30040321807465   12.26998126167362    4.27063083703449
C         1.37451606844330   11.83106482049632    3.37568605511411
C         2.16556723556834   10.70977172185674    3.62543053841977
H         2.01412062211475   10.12125422655323    4.51480664399757
C         3.15602461472865   10.35789799144378    2.73076119229474
H         3.78210602821585    9.49894128528670    2.91600675601106
C         3.32423751205925   11.13214123528770    1.59151551752991
H         4.07954620725420   10.89613414794572    0.85976979800799
C         2.50434573059972   12.22830915560097    1.40972024808202
H         2.61167149233969   12.84955811634774    0.52988003271318
C         3.78332484696012   16.81980890877885    5.99160005780912
C         5.12949956200393   17.09383660478149    6.23143921943684
H         5.69459800637459   17.62325942091807    5.47918538219032
C         5.72675998428089   16.68208676506147    7.40514345189166
H         6.77431333487681   16.89507960282466    7.57090264113837
C         5.00483147497763   16.00402667885711    8.37954681550484
C         3.65942306118992   15.74816082627585    8.14356354507991
H         3.07779812040854   15.22853201424893    8.89378728540353
C         3.05205613633477   16.14472011323078    6.96984370690854
H         2.00204072752091   15.94744828964971    6.80379927428599
C         5.65901658575805   15.54443875616693    9.64931353536947
H         6.57780589359363   16.09645812773220    9.83377380199459
H         5.90754615074654   14.48386055828843    9.58386608307616
H         4.99175948822859   15.67909622254137   10.49884683813185

