72
CSD_code = QIFCEQ | q = 0 | S = 0 | Stoichiometry = C28H39NO2PRh | MND = 4
N         5.41359797771082   -0.53157449087947   19.27276816825323
C         4.47431172351469   -1.28844260107471   18.73582293898839
H         3.47487214838767   -1.21094154952591   19.14221759802785
C         4.72985588016979   -2.16995125631141   17.67809739599044
H         3.91850176384530   -2.76064686881831   17.28136763691309
C         5.99611288736123   -2.26913831610684   17.16509205077116
H         6.21848959962897   -2.94103940996677   16.34840490719482
C         7.02688060173291   -1.47913875937569   17.71302818800947
C         8.35901115252539   -1.49543776123330   17.27106703839482
H         8.63681327824718   -2.14921780130390   16.45851637253566
C         9.28863825992527   -0.68111477411283   17.87608414160453
H        10.31288420835475   -0.69883092320847   17.53046834422114
C         8.95374309440942    0.16963227938375   18.92308770796792
H         9.70497234177942    0.79739930939037   19.37860365367055
C         7.64466457168954    0.23231080197271   19.40635346878480
C         6.67160652443599   -0.61364900966862   18.78170888557371
C         3.57663752775721    0.64080951948790   21.08192681386042
C         6.11336073247832    1.60090065501174   23.98523179502727
H         6.39359052863439    2.35252639396197   24.73206825142895
C         4.95807051127023    0.74830567783094   24.51320543035779
H         4.10752983126302    1.37638642591159   24.78176330919181
H         4.64101815830373    0.06945125634963   23.71183210198428
C         5.37679389608368   -0.06381125833877   25.73633173188796
H         5.65083455069767    0.61696586323918   26.54671062078574
H         4.53420852569964   -0.66772894021148   26.07938215808752
C         6.56398120576380   -0.96058290999265   25.40749953205306
H         6.27518971151011   -1.67296811732752   24.63184665731648
H         6.86314609973567   -1.52691727572384   26.29193707862175
C         7.72689382875776   -0.11261114911034   24.90672959819918
H         8.57455292945150   -0.75198603290997   24.65204103991629
H         8.04828485024125    0.56699928519269   25.70076808292004
C         7.30965580345226    0.69625029356742   23.68323945695007
H         7.02289494365957    0.01403248323259   22.86987085014131
H         8.15721884516703    1.28879572023067   23.33633972224581
C         4.06423420412807    3.35870109987126   22.85506257613919
H         3.35719707187001    2.54737385003999   23.07928031419258
C         3.49896658505909    4.10741171205552   21.64946164787077
H         3.52204151750301    3.45460239415487   20.76932855983412
H         4.10785884355958    4.98729097244369   21.43720560648176
C         2.07292803364586    4.55905773562630   21.95140967749446
H         1.66081160626067    5.09728884622063   21.09548356588145
H         1.44558033154395    3.68332470654970   22.12983492462734
C         2.06028167008076    5.45890165272335   23.18522144915507
H         2.62811179521025    6.36821228867306   22.97304434277380
H         1.03587562091374    5.75431596695431   23.42046915731106
C         2.68099329654531    4.74690329861907   24.38477422933053
H         2.07029402874336    3.87930195208701   24.64546467903664
H         2.69363605139378    5.41755395706475   25.24692502980916
C         4.10424373288333    4.28731802548166   24.06530338246555
H         4.71565642645013    5.16346360438299   23.85124743522596
H         4.53004454259324    3.78155984193831   24.93319053961932
C         7.00204942582437    3.56808842163420   22.00990723392930
H         7.84110601284447    2.86539003997722   21.92343170223261
C         7.38239066556877    4.64680493366372   23.01811309535593
H         6.61985237881099    5.42661448141777   23.04108376218856
H         7.47797544192568    4.23194995459340   24.02317499822343
C         8.70911615336944    5.27569636006049   22.59051036883048
H         9.49020319564126    4.51198867030765   22.59587284109292
H         8.99730898551339    6.05321486887975   23.30201315515929
C         8.59464508417553    5.87298025608914   21.18986898219371
H         9.55622964534705    6.29312209001104   20.88746474233098
H         7.86649210154405    6.68806588662490   21.20498919370080
C         8.14651001188300    4.81685675008941   20.18171469615065
H         8.90618258872393    4.03642966964309   20.10560697959620
H         8.03368792325096    5.27125857067865   19.19502259430945
C         6.82707802457217    4.19216319633178   20.62506610255369
H         6.05821951404940    4.96595151926100   20.64718706351657
H         6.51233407910224    3.41790684532509   19.91593533709130
O         7.28066020977722    1.00406660137969   20.37242195717938
O         2.44894306277354    0.49414775924037   21.28813247079407
P         5.59790674466347    2.40748266870235   22.38594519122972
Rh        5.35623489860695    0.84570179164056   20.75961768722037

