47
CSD_code = QIFDAL | q = 0 | S = 0 | Stoichiometry = C19H16N3O8Re | MND = 6
Re        1.98011556767698   -4.93438025462903    8.73742628384236
N         3.73779237930070   -4.40553036640048    7.64643555348237
N         3.18140425791122   -3.91029101831984   10.16832515254942
C         2.58578535316982   -6.66381360068915    9.39308147324041
O         2.97485996156682   -7.68014545940205    9.75527763447106
C         0.37359433729452   -4.94660203639062    9.85879610340703
O        -0.54633156681107   -4.89328996430903   10.52985961656074
C         1.01286607066750   -5.78141131951801    7.27131406460730
N         1.41432916770704   -2.86487397795081    7.80956464091215
H         1.63977581120109   -2.83861973129379    6.80659840695070
H         0.40355074312995   -2.75070967126554    7.91006149606306
O         0.48193214317523   -6.28512558132244    6.38746422174144
C         2.07668722079851   -1.70043372336652    8.36320147729171
O         3.20479069529554   -1.38252451364406    6.35125436594872
C         2.96999407533023   -1.02954169358154    7.52205661693780
C         1.72768599098471   -1.40519149262330    9.70617444942789
O         0.97251215029204   -2.11586532871562   10.36502704435683
C         1.96264378229046    0.08221652190482   11.53141059331560
H         1.30859080817076    0.95617011439590   11.48964339985702
H         2.87552911633432    0.32707923419963   12.07433197183764
H         1.43830679449424   -0.74425618718979   12.01701840598150
O         2.32670776072647   -0.29035192258187   10.21477768031204
C         3.73040109513476    0.14391550390354    8.12008184493725
O         4.81972877306749    0.04937830329603    8.63546650886437
C         3.71059024283433    2.45303258685888    8.45807706015244
H         3.78240565856213    2.38168284887158    9.54519960626361
H         3.08335409521085    3.29195385256322    8.16856970872596
H         4.71435122452918    2.55906433608776    8.04158072993989
O         3.08253183433627    1.28689313770755    7.94124074453298
C         3.98339669249861   -4.72055719258498    6.37661261781878
H         3.35165559899397   -5.48572370724346    5.94337464715855
C         4.97498522072645   -4.12075746786519    5.62631935054028
H         5.11896579948019   -4.40451159477893    4.59677762643163
C         5.74629013082126   -3.13190557176693    6.21857645769626
H         6.50673560109294   -2.61265190275958    5.65709866776313
C         5.51994608823325   -2.81602530502608    7.54278023997070
H         6.08599708421279   -2.03274720454338    8.01611927731070
C         4.50404842439864   -3.46879898577180    8.24032527725250
C         4.20964925455948   -3.21086504551578    9.65510502438704
C         4.97846084468532   -2.35781490621280   10.45068262883497
H         5.78012291372239   -1.78387925683168   10.02160726823691
C         4.66945722699042   -2.22502180947597   11.78850735166630
H         5.24122004102841   -1.55718050021455   12.41480224154747
C         3.62096661243640   -2.96877768262581   12.31239911691566
H         3.35060798841541   -2.90342709848945   13.35380944495341
C         2.90537770981055   -3.79065265641174   11.46265422077606
H         2.07123122350623   -4.37153070846897   11.83143168419846

