68
CSD_code = QIFFET | q = 0 | S = 0 | Stoichiometry = C28H37N2Rh | MND = 6
Rh        6.31110734146313    9.76567594357562   14.54817920476607
N         5.13185592796485   10.31594748760841   12.97265357269779
N         4.68517860537822   10.92053794740917   15.02573002050935
C         4.18928337249700   11.68094735166519   16.08380079010128
C         7.51140500679197    9.85094391038923   16.28903186714683
H         7.24720068279898   10.72821152752620   16.88236717375496
C         4.44744511404512   11.14008073262330   13.74609644787002
C         4.67214126891670    9.63369802747355    9.39315128703879
H         4.08520713210606    8.98617867751576    8.75595306430798
C         5.25325303425508   10.41489616627882   11.58728425876219
C         3.23782743620122   13.11879824587822   18.28166974101024
C         4.83190280920530   12.86078366387231   16.47876982395200
C         2.62335503215776   11.93710646047671   17.88687777430592
H         1.76739895079193   11.57515738416790   18.44021167142418
C         3.08432764441828   11.20919266551465   16.80447853194460
C         5.58562564835002   10.50744103424885    8.81639526250262
C         4.34396723106455   13.56037101577634   17.57174153137758
H         4.84070175562858   14.47261625119256   17.87400153105275
C         6.66737885231390    8.74780207540973   16.38120467587851
H         5.77387780655411    8.85351525888180   16.99730964818729
C         4.49752762869269    9.57053828702621   10.76419086123098
C         6.18725592512595   11.29367036845116   11.02364406161671
C         6.33834131980128   11.32437717591893    9.64619122879804
H         7.06030640135400   12.00328537161113    9.21254138018914
C         7.08606304788947    7.99170472448071   13.71148438962977
H         6.58969380825938    7.79085203424184   12.76074852442438
C         8.09772936961753    8.94973611433355   13.71756330148398
H         8.31190859763671    9.43849191325538   12.76630407828351
C         8.98286794245099    9.77557341053272   15.94392665439513
H         9.53909607165062    9.37633982655811   16.79926733951734
H         9.34273505819347   10.79356498224312   15.77391326318397
C         3.47828946841544   12.16821484922800   13.23478721146460
H         3.51974535194401   13.06749856718149   13.84562587553315
H         2.46646087749632   11.76792019917381   13.29486039154953
H         3.69464901368478   12.40939827644740   12.19636901158670
C         9.26248605235728    8.92900848134422   14.68681752794578
H        10.15029571228981    9.32211873816389   14.18750641266007
H         9.48050438874911    7.89658763593860   14.96264192698745
C         5.75002404502242   10.54878960381628    7.32607466308364
H         6.08619456623852    9.58131300063104    6.95391523470759
H         6.47726830318591   11.30271891697664    7.03515498734181
H         4.79994732549824   10.77769984944989    6.84426125488942
C         2.70248188659452   13.89781343342919   19.44627134245273
H         1.79209060465137   14.42545095449462   19.15919386744940
H         3.42724966507529   14.63179668052806   19.79028417461776
H         2.45548354199870   13.23385881031551   20.27277707707706
C         3.50928237989057    8.62980898688228   11.38518688342709
H         2.56602189322169    9.14333703305122   11.57592390080387
H         3.88892799618950    8.27009554226458   12.34116205438803
H         3.31165161056115    7.78504597198766   10.72981503341346
C         2.42507748605070    9.93073528807217   16.38265596798923
H         1.72416906822501   10.11480144276900   15.56744205781443
H         1.87740676058153    9.48449551329303   17.20923172044323
H         3.17561860019055    9.22819365151679   16.01948288438732
C         6.96199757690114    6.86390155598779   14.71065236833094
H         7.69624732413057    6.08617128790764   14.47437253394679
H         5.97098204869661    6.41855894263687   14.59279781235317
C         7.13228403649671    7.32247180165699   16.17297747768132
H         6.55366432988262    6.65865660986406   16.81857060692732
H         8.17601777396231    7.23897075775803   16.47862079604518
C         6.03293367155114   13.35427323855426   15.72529769561940
H         6.59343082828349   12.51280219508764   15.30624782618459
H         6.68745231749155   13.92911367421837   16.37674371401668
H         5.73069446298510   13.99757629842356   14.89731453182708
C         7.00561769552169   12.18303765665549   11.91312207508540
H         6.44372464134080   13.07953535854070   12.17945536938615
H         7.92270254910492   12.49059843802251   11.41606995634248
H         7.25925832196884   11.66139472159934   12.84483281289983

