74
CSD_code = QIFFES | q = 0 | S = 0 | Stoichiometry = C26H41N3OSi2Zn | MND = 3
Zn        2.92186339098344    5.88341271345186   14.86547914786908
Si        5.37973275467459    5.56049968792880   13.01211011765342
Si        5.72075452389189    5.37506077692251   16.03920599273834
O         0.57514636656206    7.82881265067902   17.53785847385252
N         4.76413578944684    5.61362221504398   14.62619567078938
N         2.08813580565992    7.22844035161029   16.02098262348140
N         1.32567745984004    4.94617764286501   14.43303703335883
C         7.00465342445783    6.54623601715941   12.83600582937610
H         6.88635752880418    7.58021608550447   13.14226950863801
H         7.34629984427183    6.54425107102428   11.80624874594282
H         7.78875271654750    6.10934186477299   13.44353537907080
C         4.06547498078419    6.35880152709175   11.87828993752735
H         3.06886933757115    6.22529313592949   12.29749366845585
H         4.06335965257131    5.89786970873397   10.89666329173362
H         4.23471602993208    7.42157379741426   11.74179428857415
C         5.67214261514095    3.77821535446316   12.38747654414640
H         6.32117576507975    3.22416036435769   13.05605762739780
H         6.13783951944502    3.78336821283058   11.40664977428989
H         4.73645545070732    3.23423551375853   12.30414137136324
C         7.01021874407376    3.98407760168671   15.85159165421681
H         6.54784178032138    3.03727179192045   15.59398230300386
H         7.56305658560640    3.84116984623755   16.77440523330676
H         7.72478903130646    4.22433453231486   15.07312619729785
C         6.66342772929289    6.95872728868038   16.56823536150191
H         7.30382397711564    7.31172832686918   15.76717216216359
H         7.29362336714905    6.76312947426563   17.43073815523554
H         5.99193337994562    7.77066432460820   16.83271439129740
C         4.53744219027858    4.88753843521662   17.46642394244406
H         4.79255604574177    5.39756661011004   18.38999563631632
H         4.57558784514756    3.82144489475424   17.66496054549065
H         3.50269039227593    5.13571594656612   17.22523633753820
C         0.90953514757347    7.00827155917937   16.52171707211437
C         1.67101014904371    8.69194727119759   17.79648615740033
H         2.03540482985406    8.49685571355921   18.80948456305791
H         1.31341320273024    9.72345340571504   17.73505682848740
C         2.70811736278399    8.35108812818428   16.70500458407667
H         3.65777969211406    8.01367770902181   17.13392751220108
C         2.99152680473081    9.53308463189004   15.75984762865657
H         2.02890895322847    9.95471914997915   15.44578603515320
C         3.75637437224179    9.08157314020787   14.51951925582046
H         4.01298875796592    9.94421515986726   13.90837342284254
H         3.15258596637940    8.40417694499641   13.91702029650626
H         4.67110149004810    8.56476153737125   14.79879493637612
C         3.78991781475921   10.60271971665036   16.50299115152437
H         4.76695850514914   10.21426432058706   16.78121395219965
H         3.28036922216873   10.92789223659694   17.40697440021561
H         3.93752061255070   11.46987656932502   15.86419068392003
C        -0.04930812131030    6.02856283806218   16.12250546502973
C         0.17012918586306    5.05507369201032   15.10107438416595
C         1.40598640833130    4.06420591811441   13.32867850120885
C         2.14386023421425    2.88173213961107   13.44302387759238
C         2.27621523759470    2.06221737080295   12.33193491996836
H         2.84021966091526    1.14397135493005   12.41603314758886
C         1.69348293905996    2.40337559658803   11.12474723780182
H         1.80595415573089    1.75710371999100   10.26696160766431
C         0.96648611177292    3.57462185683097   11.01967589907071
H         0.51190518541505    3.84393880053104   10.07697161941266
C         0.80954197617822    4.41536640510903   12.11153415764355
C         0.01599048460310    5.68205015142946   11.99252123588835
H        -0.10807354909224    5.95884108347131   10.94838507127390
H         0.51067635561998    6.49678628516409   12.52220219481640
H        -0.97188399512960    5.55608149834970   12.43772353638984
C         2.78375370752297    2.52218912656224   14.74841228469607
H         3.19621522242903    1.51686884506174   14.70871745090971
H         2.05785680781405    2.57456257512079   15.55951003808756
H         3.59235329875131    3.22292397058916   14.96984008390803
C        -0.90187629724807    4.15979785189917   14.83635753939815
H        -0.74674848873790    3.40054700411189   14.08416137484018
C        -2.08970120461846    4.21898224554256   15.50690347965435
H        -2.87376441130491    3.51397047804295   15.27002111677817
C        -2.29697094219315    5.17923290316786   16.50301401247007
H        -3.23633302280996    5.22331949313065   17.03138457853014
C        -1.28752565738790    6.05262750310512   16.79858744404576
H        -1.42338818993651    6.79681433357239   17.56765231452512

