102
CSD_code = QIFHUK | q = 0 | S = 0 | Stoichiometry = C42H51Cl2N2O3PRu | MND = 5
Ru        9.36228037468837   17.52067889147756   16.76359878547050
Cl        7.55054393349023   18.62394784477256   17.63665796929730
Cl        8.83412283143534   15.71676410274952   18.11824968087936
N        11.80749054602499   17.08690591146182   18.10642329957406
C        11.23006193382552   16.81253722260395   16.92789557345532
C        13.04988592285847   16.35981827630756   18.32400978700198
H        13.01435741186968   15.80652799049931   19.26523304861440
H        13.89489828306667   17.05759588361761   18.36232853642993
C        13.09756893080636   15.43889729152427   17.10226002151216
H        14.02668520563965   15.52730361343590   16.53266989413428
H        12.95793760099179   14.38749144883545   17.37136994730770
N        11.96196376803204   15.89613715078816   16.30190959489865
C        11.35877952119956   18.13381532155601   18.96348407995693
C        11.65361534864085   19.45952781746390   18.61452447104846
C        11.17645505274621   20.48339103157747   19.41880170408114
H        11.39933552233168   21.50518692840450   19.14730873091172
C        10.42708625997757   20.22257270668041   20.55649326377690
C        10.23781730315398   18.90162874107322   20.93525933909960
H         9.70625706047828   18.68604280961723   21.85119874205771
C        10.71819791610357   17.84326889738526   20.17623106834171
C        12.56675240607087   19.77445648205140   17.46757183315890
H        12.39801076155783   20.78820113737974   17.11643733774981
H        12.41637137798888   19.09316250178000   16.63483452049722
H        13.60421638226827   19.69660385593901   17.80087820688075
C         9.85359306803779   21.33511507404933   21.38003614558560
H         8.76833726687772   21.35099207930979   21.27762161571370
H        10.24292981605768   22.29903459790629   21.06149005304810
H        10.08446133076967   21.19156395588394   22.43421860905573
C        10.61776681928646   16.44660311769876   20.70653499627788
H        11.54290051653982   16.18962661585589   21.22707339663818
H        10.44804619419430   15.72531890358025   19.91054704573654
H         9.79794315841200   16.36959560859991   21.41613420185934
C        11.77837469830301   15.35157400662134   15.00159944095191
C        11.07235813615491   14.16212154734732   14.82561952913106
C        11.00059378204052   13.62199296066409   13.54838651229366
H        10.45286343468648   12.70166139349611   13.40422611132396
C        11.62477332596856   14.22004420895641   12.46602437886296
C        12.30589817651634   15.41306096165852   12.66635415074365
H        12.78188443675917   15.89740322820380   11.82550909956246
C        12.39273110939838   15.99110640091909   13.92141628394433
C        10.43430559233372   13.45548244126186   15.97776276620398
H         9.99673452413550   14.16431270421629   16.67823815149114
H        11.17290773969931   12.85609639155555   16.51191581059939
H         9.65107340240069   12.78989708495893   15.62570510970928
C        11.61655952627776   13.57084241684584   11.11601846371082
H        11.57222439144014   14.31778904794122   10.32710036464776
H        10.77355991106516   12.89231331799979   11.01454788056457
H        12.53193514655822   12.99267498363592   10.98256367301004
C        13.13383552391433   17.27883369881318   14.12044030488111
H        13.47395035280874   17.67022564947603   13.16520640892872
H        14.00462619827827   17.13606581459695   14.76030808266391
H        12.48380747105140   18.01502613166860   14.59064052802308
C         9.00462594984383   16.69471045680250   15.05206470788904
C         9.52587493056449   17.15326023871040   13.80802518229503
H        10.31386316215420   17.87750011418217   13.72308396770963
C         8.94595834561330   16.50680224751300   12.74776786817410
C         7.95706386026487   15.58027563308621   13.29139109207603
C         7.02466938405797   14.76873032808851   12.67984945475563
H         6.94309163212994   14.71922538298924   11.60415958208323
C         6.15495938109750   14.02266102127968   13.47149973504947
H         5.42901525386252   13.37632623118161   12.99874911990725
C         6.20251164114375   14.11453009776143   14.84928718125822
H         5.51711088666734   13.53442106970450   15.44966325845344
C         7.10811338315661   14.96413816503360   15.47750189083179
H         7.10510977239085   15.04703359903602   16.55242511996021
C         7.99751699679235   15.69242444614382   14.70781178436778
C         9.25844224853924   16.74934014405050   11.35400500431545
C         9.18771542854120   15.74230470202571   10.38995608226914
H         8.91301275754110   14.74355769493355   10.68819352809892
C         9.50798318725665   16.00345408936936    9.07117529753295
H         9.45181869532989   15.21070010653880    8.33838727738817
C         9.90489406303145   17.27280215719864    8.68428233473304
H        10.15202023870822   17.47473939942808    7.65234865768846
C         9.98307282150818   18.28261061252750    9.63103970702577
H        10.29011927295650   19.27570621875600    9.33428286317082
C         9.66418604834833   18.02529896203161   10.94881791408654
H         9.70475676797133   18.81854141882151   11.68068282196685
P         9.57082354967521   19.60307293840551   15.77001971837847
O        10.86326104937560   19.84411124666176   14.84339939466101
C        11.03538594641129   21.04611812546429   14.09068925536682
H        10.08967256664875   21.30878176406105   13.60804496774945
H        11.31504475328004   21.85643157930415   14.77048724313359
C        12.12385234712820   20.81424328384623   13.05647047945895
H        12.26734038629917   21.71633981159166   12.46756322648365
H        11.84683237611397   19.99781589541389   12.39442828950044
H        13.05851853825416   20.55866359937486   13.54866405004276
O         9.71672805454709   20.94973360897611   16.63801208378524
C         8.68698805482453   21.54105270013044   17.42085227041794
H         8.70013385869438   21.09675361546498   18.42090347659650
H         7.71435437697505   21.34553331715610   16.96139794440525
C         8.94554265733865   23.03674500141049   17.49221043203856
H         8.18197363489542   23.51007937658879   18.10311591414791
H         8.92216453230293   23.46790886473330   16.49440951534131
H         9.92101240858215   23.23028025714934   17.93092527643624
O         8.37071102391768   20.06890737263915   14.79489494262446
C         7.21926472589023   19.33133607624581   14.40538008273390
H         7.27469843058779   19.19286747176648   13.31981849271519
H         7.22047223896655   18.34450540845352   14.88502306939110
C         5.96075657204198   20.09263520452336   14.78991533329759
H         5.09206707938187   19.57895425233549   14.38811849938388
H         5.99377920130378   21.10529530536543   14.39426837438706
H         5.87234882186784   20.13390118311964   15.87286768311499

