114
CSD_code = QIFHIY | q = 0 | S = 0 | Stoichiometry = C54H51Cl2N2O3PRu | MND = 5
Ru        9.11567028929363   12.47483079305027   14.89771777216918
Cl        7.10129987664668   11.72929849449073   14.11333362442795
Cl        8.47108345038144   14.62332353383728   14.28678312763991
C        10.93736050935000   13.24253595405890   14.56254781316917
N        11.37326657012507   13.10210100265670   13.30346785792756
C        12.42747945476112   14.05138617525611   12.95972626892630
H        12.10442937074838   14.68383476500786   12.12703061415349
H        13.33770857030236   13.52519427485916   12.65695763239015
C        12.59574671545852   14.84384733045330   14.26044951243258
H        13.60486130747538   14.77382186627165   14.67925534424512
H        12.34808151848576   15.90076589176862   14.13348745966398
N        11.62843990246200   14.21351490216002   15.15688891150719
C        11.05306709062828   12.01240899641588   12.43640961225986
C         9.97351648310689   12.09398321174748   11.54931241093461
C         9.71425304030960   11.01433574219231   10.71514415305646
H         8.86838451778941   11.06974840447279   10.04446466290526
C        10.51624961677352    9.88514574287272   10.70399358442082
C        11.61026187494889    9.84843652341389   11.55440942526090
H        12.26618987625649    8.98864658546732   11.54577517148341
C        11.89284973957705   10.89138246457227   12.42317572482006
C         9.11497523751086   13.31402126514166   11.42484392796170
H         8.15676808794948   13.15731214071363   11.92577271198272
H         8.89813657221570   13.51084016195693   10.37583875850201
H         9.58353727539952   14.19437716521185   11.85954056371301
C        10.21103067529350    8.75646723355464    9.76774808522915
H         9.24590170025039    8.31519763841550   10.01398589448905
H        10.97158736381311    7.98194692523460    9.82567988105540
H        10.16045115550924    9.11991795669318    8.74214326972582
C        13.11857758937560   10.81058082764066   13.28349125689905
H        13.31980453992983    9.77702462955702   13.55570736936373
H        13.00061529375593   11.39096182930143   14.19284317277786
H        13.98605228538453   11.18514691769207   12.73598051083102
C        11.64513675568784   14.51363907944343   16.54935292664695
C        12.35600184419493   13.65570077354393   17.39454752285377
C        12.38602032883973   13.91950808979204   18.75203804531638
H        12.92845197618640   13.25794470972483   19.41188593928893
C        11.71624820681195   15.00987366153051   19.28951015754557
C        11.06465992159094   15.87427730532966   18.42733036071264
H        10.55933872978606   16.74130878690250   18.82753129725327
C        11.03088701798420   15.65944313522671   17.05501625899960
C        13.07702040964868   12.46615577440454   16.83571140376391
H        12.37022758372700   11.82088523005287   16.31492980222222
H        13.55438196380960   11.90435317726668   17.63500871305815
H        13.85009456855631   12.77616040894627   16.13126523114530
C        11.72809976135614   15.24006566749840   20.76915054737294
H        12.71839686816425   15.55831416505227   21.09540815075775
H        11.48434964594269   14.31762665299718   21.29381513943498
H        11.01023285993616   16.00676674738286   21.04761881607518
C        10.36997684018579   16.66064946595622   16.16486467052098
H         9.79104376786668   16.16497944552495   15.38872777188774
H        11.11903434357707   17.29513338710286   15.68869794918616
H         9.70502046754296   17.29732491804051   16.74148060007268
C         9.11533447037295   12.68268342744127   16.82146929927371
C         9.83550725051244   11.87421151535422   17.74389768987819
H        10.45146822018937   11.03982378306343   17.46118853577102
C         9.63847192724451   12.28348694325584   19.03805709805582
C         8.74367507357301   13.43727815986535   18.99226168332710
C         8.29158501082144   14.29637528820671   19.97134378488392
H         8.62751274329695   14.21126591056356   20.99365049870506
C         7.40400972868224   15.31187114144418   19.62408418594174
H         7.04253868950576   15.98506377845949   20.38878279064633
C         6.97656003707049   15.45836427504538   18.31877110816015
H         6.26793473621491   16.23461047557221   18.06934071556551
C         7.46102993347013   14.62722998308769   17.31339289435586
H         7.12364568029992   14.76392746515837   16.29857542071876
C         8.37662701598437   13.64228485763688   17.63494946641183
C        10.18808601709613   11.63878967881685   20.21238656936389
C        11.38560745946124   10.92076841243369   20.12434217026286
H        11.89992524249629   10.87288293890820   19.17765101188467
C        11.91887704284207   10.28746129725955   21.22826897178263
H        12.84894644217437    9.74365338423933   21.13949341235229
C        11.26702046378427   10.34495131124994   22.45015907059049
H        11.68623593392710    9.85231814770126   23.31509524506004
C        10.06668014177750   11.02912269859943   22.54861832363646
H         9.54165337260486   11.06083369030564   23.49278220007464
C         9.53164910889405   11.66646338072663   21.44584537568895
H         8.57526437875213   12.15700216589024   21.52681588538569
P         9.50341390424727   10.22384576071972   15.01657680105048
O        11.01681081475756    9.85878097241159   15.49814762439816
C        11.60204878094995    8.63575424757472   15.74071939907694
C        10.95986086298304    7.41651187735677   15.58042058523125
H         9.93393432624429    7.37615990873074   15.25442453484834
C        11.64100341547321    6.24016783823956   15.84756934490351
H        11.13078053889983    5.29750331810156   15.71630816789666
C        12.95499942925108    6.26562291621102   16.27840192482870
H        13.47843356854009    5.34457004112955   16.48485140830067
C        13.59248426357305    7.48380640659189   16.44630277766519
H        14.61692425727968    7.51816349619750   16.78617068425363
C        12.92343067430622    8.66328671931851   16.18051874841894
H        13.41270809105872    9.61554755532880   16.30893280211228
O         9.43486260251142    9.41425496755263   13.64024547688076
C         8.61216608383713    8.38086799981418   13.22773291528779
C         7.23373893520393    8.42725424502418   13.34560966613752
H         6.76461786763685    9.28934037049964   13.79253027903843
C         6.47616550143793    7.36950107588601   12.87174053736653
H         5.40120121188664    7.40757709246196   12.96344181435867
C         7.08498930685764    6.27438855300435   12.28362105509337
H         6.48771541362918    5.45394858285331   11.91513881932389
C         8.46471547465985    6.23480086637262   12.16968126760272
H         8.94891429452383    5.38410798064608   11.71325110401057
C         9.23227952437957    7.28278537288557   12.64432567269706
H        10.30866173371902    7.26605204253116   12.57061867984000
O         8.56500840305951    9.26330439115828   15.91391879687151
C         8.08760981123917    9.55829812771377   17.17963955965125
C         8.63931072511338    8.89155081154514   18.26493684870006
H         9.44986356728085    8.19559024885282   18.10431009198877
C         8.14745686803364    9.13340647579158   19.53435995478755
H         8.57936252707986    8.62033441070939   20.38043268393751
C         7.11740009247224   10.03983083883024   19.72045994693288
H         6.74041420405513   10.22892240954700   20.71401269743142
C         6.57206475504273   10.70032136988628   18.63367681736083
H         5.77292872359988   11.41204856197695   18.77407611113195
C         7.04892441439879   10.45896394582471   17.35708320493602
H         6.62348749691105   10.96515616242072   16.50369039728132

