45
CSD_code = QIFPAW | q = 1 | S = 0 | Stoichiometry = C12H26AgN2O4(1+) | MND = 4
Ag        6.25638607730211    1.33519913900961   10.78524627939637
O         8.23217100730919    0.96894338265922    8.38811787615940
O         8.85109316490530    0.94660673569519   11.13943378318437
N         5.62222672229145    1.50567960270655    8.50656080244985
C         6.46648498073961    2.40138116549037    7.71745973809939
C         7.88870685569454    2.33702908653890    8.26429203900183
C         9.54463519325290    0.72345360666342    8.85329328407987
C         9.53854192530160    0.08941995706550   10.24495255581739
C         9.10912879712473    0.66363822546009   12.50024582244339
C         4.19709065023415    1.64995408028353    8.22177485122511
H         5.90014752432146    0.55881539663312    8.24393813883176
H         6.46402332089562    2.11213024931435    6.65879706661107
H         6.09269888162675    3.42356902470051    7.80324139017284
H         7.92871242844548    2.82782155350860    9.25157748030240
H         8.57878080059085    2.84891367607368    7.58126774189384
H        10.02697581056851    0.02916415771134    8.15667557457890
H        10.11859173785075    1.65383118006958    8.88226552874317
H        10.57673195084225   -0.04566672721243   10.57358914983733
H         9.04617823476361   -0.89137165779530   10.21120887149552
H         8.81124745574489   -0.36901382892433   12.73575793840527
H        10.18246782940167    0.77156005205033   12.70703438087254
H         3.89577443341829    2.66665427580281    8.48599249685180
H         3.96948828021308    1.47714502894569    7.16126803672359
O         3.66222075401234    0.94654360613961   10.43007456392867
C         2.97472810874125    0.08955299096410   11.32467842430382
C         2.96915496779457    0.72383254241072   12.71620729160829
O         4.28191609707670    0.96908011108695   13.18076127172574
C         4.62505503051233    2.33710921169763   13.30620430569705
C         6.04731908379626    2.40120937823178   13.85302061939420
N         6.89158092910013    1.50588129216630   13.06350879717312
C         8.31677338943088    1.65048270763104   13.34780100350875
H         8.61782969448114    2.66719037329892   13.08331017932667
H         8.54475434894434    1.47789143311839   14.40826676857437
H         6.61403305207349    0.55888844870394   13.32604236990763
H         6.04985495264213    2.11151849031995   14.91156383498741
H         6.42107318272713    3.42344312500735   13.76767052127700
H         4.58478958737851    2.82903091200372   12.31950053429165
H         3.93492884967857    2.84800767500500   13.98990135185532
H         2.48679624754489    0.02986947379920   13.41314589214854
H         2.39548605197952    1.65437737716652   12.68713590768599
H         1.93644532848708   -0.04531093786107   10.99624086759614
H         3.46687518436616   -0.89134688165028   11.35842923318856
C         3.40462354236502    0.66315236541368    9.06928058871336
H         3.70274721165899   -0.36951070922388    8.83412262454704
H         2.33133034236972    0.77084965211985    8.86214222138347

