114
CSD_code = QIFROO | q = 0 | S = 0 | Stoichiometry = C60H49BP3Rh | MND = 4
Rh        3.73448055946293    5.68974338454449   13.69936737316759
H         3.07006816755335    6.56165914545763   14.83156377527800
B         1.94580081835235    7.23564474874065   15.04347055640497
C         2.40254468595542    8.18350464886240   16.26060816213742
C         2.30443842381359    9.57162574799265   16.22767234646590
H         1.89157680288357   10.05278863491647   15.35063248242764
C         2.72352686303856   10.35277107232987   17.29020718344519
H         2.63737038031139   11.42974193556399   17.23429655897243
C         3.25508693257299    9.76065852591409   18.42167910048772
H         3.58592299480153   10.36914914534097   19.25202173118296
C         3.35942280587194    8.38094586408039   18.48069161257852
H         3.77213169092839    7.90667478043835   19.36137375439310
C         2.93788954671092    7.61054842480053   17.41440073076812
H         3.03131482189362    6.53180740853287   17.47049894466456
P         4.23230325548678    7.75801461983904   12.97656864113683
C         1.58296186249797    8.07144495582206   13.71300755501055
C         0.29064230755063    8.54701195349168   13.49923681441518
H        -0.49449169714090    8.24196139161372   14.17537200430018
C        -0.02450336963067    9.38942195590779   12.44771885540749
H        -1.04210982252797    9.73042119724182   12.31496689922374
C         0.96355176692154    9.80380894680242   11.57169045703519
H         0.73108588633430   10.47746746904776   10.75886126969855
C         2.25482262688935    9.33806657969396   11.73809424710177
H         3.02580681042903    9.64651003393702   11.04412905042241
C         2.56021414896941    8.47287501392858   12.78282174807189
C         5.09052735477272    8.22134626665301   11.43397942318356
C         6.27093000592779    8.95404944604240   11.41160989174803
H         6.68968866665378    9.32988514744051   12.33452645271464
C         6.91026278780359    9.20607736138519   10.21054365584325
H         7.82441734328370    9.78215794075600   10.20158086585355
C         6.38670065420453    8.72178652508353    9.02457039691537
H         6.88862978622381    8.92219813889320    8.08935725867205
C         5.22057386978496    7.97288452178044    9.04097468116015
H         4.81160851992636    7.58460837463031    8.11912806082848
C         4.58222793380669    7.71839401285236   10.23811223102421
H         3.67454529214203    7.12960465673383   10.25634714075631
C         4.97037663322266    8.88062087657919   14.20798845875047
C         5.54671656839675    8.32960392292471   15.34496399967394
H         5.57251547257940    7.24898031342711   15.45363507051792
C         6.05581213437443    9.14774627131341   16.33574918318571
H         6.49547508419889    8.71593996030072   17.22279432542718
C         5.98516308234901   10.52314547790855   16.19537345340047
H         6.37354886667207   11.16534923428696   16.97212694345169
C         5.40534252391196   11.07882415847623   15.06572644283940
H         5.34309051694478   12.15286651482159   14.96427711325959
C         4.89558977623716   10.26252655605662   14.07431305542102
H         4.42961122511595   10.69030271291448   13.19670059275545
P         2.57229488219611    4.10584417775756   14.77240164292449
C         0.85438982088392    6.15928694715004   15.52706170101932
C        -0.30401324125228    6.61254748204380   16.16138898095097
H        -0.40519636703540    7.67080460358647   16.35920279544958
C        -1.30971868061210    5.75359087254770   16.56058355865694
H        -2.19517767078164    6.14339553614691   17.04339215976740
C        -1.18634134346523    4.39056994390389   16.34076328075790
H        -1.97588239242588    3.71371893547681   16.63575446852553
C        -0.03280846654163    3.90059642632997   15.76213066518313
H         0.07649489707196    2.83517899836278   15.60171196342515
C         0.98403730956073    4.77217351387346   15.37562547189513
C         3.42848802485328    3.68398428616793   16.32931226352728
C         4.77998587124393    4.00859114103872   16.39713639517363
H         5.25135290303156    4.45927008423794   15.52293408867437
C         5.50312210249277    3.76753826369597   17.54982686343924
H         6.55205266931336    4.02258782718312   17.59776178972490
C         4.87531716915617    3.20323507608193   18.64852680650526
H         5.43431446296998    3.01658733748411   19.55391972054723
C         3.52748335772557    2.88588843575019   18.59103710737117
H         3.03842621260363    2.45384146933963   19.45232707801496
C         2.80233197433739    3.12614284802241   17.43777502653177
H         1.74808743986926    2.89111932032157   17.39989462661311
C         2.07767412213164    2.48274553344503   14.10990031575391
C         2.51794521218415    1.26595196041778   14.61317302181016
H         3.17758349856509    1.24146857204016   15.46937559274117
C         2.10694097318592    0.08477274490390   14.01927115084128
H         2.43978305422430   -0.86074645447326   14.42312466059050
C         1.27653699965659    0.11076492386679   12.91189071702420
H         0.96064469608578   -0.81393266981937   12.45093047142131
C         0.85122673516537    1.32466903958580   12.39233855782092
H         0.20886829515896    1.34749454155815   11.52356289042839
C         1.24958015491943    2.50369015915336   12.98941299308136
H         0.91986614690801    3.45855904306786   12.59957585099674
P         4.74303691672955    4.45956622634778   12.12995923321089
C         6.29704136386884    5.17034991037709   11.46712473284018
C         7.08472861233724    5.83998333471091   12.39991633254003
H         6.71905935308407    5.94418463824069   13.41782187872991
C         8.29685230565438    6.39176956120857   12.03597439473229
H         8.90183901524705    6.90396709211559   12.77012799524388
C         8.72578124206282    6.29905359817464   10.72209561160507
H         9.66921975931333    6.73483946677555   10.42822889476508
C         7.93393926839961    5.66276985108076    9.78243694387056
H         8.25771017061898    5.60839316763442    8.75309388456107
C         6.72580845938082    5.09573800651307   10.14990120036980
H         6.11318106365293    4.61535257135299    9.40245489026985
C         5.34074130905639    2.77303449107489   12.52182695307578
C         6.50704058873303    2.63582073701690   13.27069250536650
H         7.07954729708508    3.51477898682654   13.53315586090405
C         6.94308652656845    1.38738018781723   13.66971613578237
H         7.85013164634551    1.29361750319953   14.24931487582098
C         6.22040766325900    0.25680864437381   13.32441636997109
H         6.56441164533136   -0.72052774112593   13.62951481418076
C         5.05431703640534    0.38586658207964   12.59054525312600
H         4.48300666716573   -0.49057070857166   12.32150361506443
C         4.60689191245989    1.63613801350698   12.20263794133418
H         3.68300518099374    1.72479960868616   11.64963264929546
C         3.68183533180979    4.17799302782772   10.67612294759828
C         2.47829829568844    4.87818319054367   10.67121954919354
H         2.24665428344205    5.52534651733829   11.51940796108622
C         1.59102171614759    4.74574887085359    9.61941842962422
H         0.66026770042486    5.29448241544398    9.62319066996705
C         1.89987488129963    3.90427747088704    8.56293845576437
H         1.21137823525440    3.79689136700317    7.73747670711626
C         3.08742259891099    3.18983928692034    8.56901094836518
H         3.31962053323296    2.52389443710357    7.75011319153382
C         3.97634883326900    3.31959445862079    9.62145418903991
H         4.88858839498796    2.73863833169781    9.63319875528486

