45
CSD_code = QIFTAA | q = 0 | S = 0 | Stoichiometry = C15H13N6O10Y | MND = 9
Y         1.16454066251635    1.95740408597888   21.70632786887335
O         2.39061610992077    0.34915444139990   20.67611771787596
O         3.35568603016897    2.14704889555305   21.23542054036525
O        -0.59535440162382    3.15504504886974   21.15790843229547
O        -0.89721828976285    1.85089115205308   22.80552009686764
O         1.30898930690371    3.33559716197661   23.33650385750312
O         1.50091829386651    2.83775114100865   19.29720633824492
N         2.77182765184924    1.18865861670275   23.68887304579717
N         0.72979526660739   -0.22043390167017   22.75604365364585
N        -0.37694665511246    0.50369883657209   20.36242224411784
N         3.45108768678253    0.94725580756229   20.91792571368778
O         4.51216558412289    0.40788600063800   20.83648495134294
N        -1.36959714262226    2.67629481654880   22.01239963691120
O        -2.52049340624938    2.99513416013103   22.04270885756986
N         1.91016162828796    4.27096329544949   22.75229863301505
O         1.85424987019038    4.28774972932828   21.52317224719188
O         2.49941171849369    5.09703187673611   23.38350966878002
C         3.71223526489057    2.01760709102917   24.12556495097074
C         3.93523928962852    2.27565359823779   25.46996282756770
C         3.13353589290237    1.64275831943777   26.40456121952294
C         2.17561814583437    0.74544376494984   25.96325233027047
C         2.03140349204654    0.53504103245078   24.59426778751403
C         1.06661248436828   -0.42528945011577   24.02980084216230
C         0.57035915393814   -1.50556317967380   24.75992203507813
C        -0.32260143567678   -2.36662647851629   24.14869385199439
C        -0.67260989348511   -2.14683065706217   22.82819097307340
C        -0.10777587434485   -1.06378591267179   22.15423775152633
C        -0.43862633142921   -0.77846770375833   20.74464597721544
C        -0.81211272470245   -1.79450606375340   19.86708842608466
C        -1.16310491891130   -1.46883832325728   18.56864619495514
C        -1.15265925540667   -0.13595627071520   18.19429949189295
C        -0.74733559630059    0.80917843647761   19.12472210979739
H         2.39844379261059    3.20330107421931   19.32725756056894
H         0.92751685275328    3.61806895227368   19.34376639858626
H         4.31260593984537    2.49917060236627   23.36326341364473
H         4.70261019533971    2.97148393317596   25.76736241305996
H         3.25112851610626    1.84120406808384   27.45940241280156
H         1.53077405858275    0.24530128800401   26.66781479063483
H         0.88212172782291   -1.67287991495442   25.77789691626020
H        -0.74023769205851   -3.19993682514420   24.69372068680942
H        -1.38666472628484   -2.78875722060381   22.33841090149129
H        -0.80316869763723   -2.82401302779614   20.18733235686647
H        -1.44562198599168   -2.24026288745357   17.86793154953550
H        -1.44226561464139    0.16860655971018   17.20154430552360
H        -0.73095997413218    1.86036403019992   18.87019602051652

