49
CSD_code = QIFWUZ | q = 0 | S = 0 | Stoichiometry = C24H22O2Ti | MND = 12
C         1.39728393192762    4.59198823234520   -3.71661393360224
C         1.39814502824869    4.84707330253891   -5.09538822034458
H         2.29694452201142    5.24777079280029   -5.54369618196824
C         0.27406951744629    4.59273619908050   -5.85547146019489
H         0.29073546797579    4.79733664261039   -6.91621025586896
C        -0.87035232179395    4.07899347307814   -5.26736788703382
H        -1.74689501981023    3.88182849701894   -5.86555303417778
C        -0.88106345651657    3.81785041933583   -3.90600915164582
H        -1.77013700787352    3.41421911551566   -3.44311136291832
C         0.23414469811597    4.06923435963785   -3.13111498686757
H         0.23639442940086    3.85953794114350   -2.06733055395966
C         2.14512060383189    2.50850305548895   -0.45575119856835
C         2.24936252830240    1.74307587650376   -1.55292886570807
H         2.37094752478821    2.19745708317164   -2.52493253234270
H         2.21827874258083    0.67112052299386   -1.50125641114324
C         1.97789444584712    1.94812420038456    0.90812119046530
C         1.36525218792029    0.71914526400446    1.13874796793555
H         0.97444584472559    0.14994795236881    0.30946485088689
C         1.23658722059049    0.23437588117342    2.42733526843394
H         0.75731682821081   -0.71900609604974    2.59591568636150
C         1.71295127500965    0.96703137567707    3.50221307260240
H         1.61060435432242    0.58444250810219    4.50694200250688
C         2.31497854539471    2.19513498874330    3.28350325652325
H         2.68488229715609    2.77204924198027    4.11875559025454
C         2.44296798974992    2.68372600056422    1.99717060616063
H         2.91363320789631    3.64388494383684    1.81627615255369
C         4.91310548756654    3.81123427273794   -0.67509664786448
H         4.87250320540063    2.90901294684190   -0.07770347085497
C         4.90705917926678    3.86436006504286   -2.08442618208492
H         4.85964588504276    3.01282639033105   -2.75095828820044
C         5.14047768554794    5.20294004964887   -2.46985866424885
H         5.29396571029300    5.54976139199501   -3.48404315381359
C         5.27550005114182    5.97139625075439   -1.30385115760407
H         5.59168963988318    7.00539348627145   -1.26684457331436
C         5.11855529939071    5.11514458416629   -0.19137220014050
H         5.28163768546402    5.38308991000741    0.84518802313242
C         1.89327242606570    6.42910610693171    0.44262011268367
H         1.78020733705585    6.11561716408789    1.47280746686402
C         0.92311440541825    6.27848126901642   -0.56992402938071
H        -0.04781420011773    5.81626340698465   -0.44911613357927
C         1.38127999108990    6.95380510638059   -1.71675656020413
H         0.81961289109592    7.10333164668118   -2.63052070910031
C         2.64320765931996    7.50644708522997   -1.42359820101612
H         3.19812989999654    8.17999332758831   -2.06536616607308
C         2.94712358935002    7.19818404653843   -0.07852311571923
H         3.76404023595143    7.61326801940155    0.49675576014304
O         2.48282997515975    4.83808375164093   -3.00150670812033
O         2.20356767304391    3.83493048718940   -0.50972718569988
Ti        2.98379490211560    5.14274746048403   -1.34978782414514

