95
CSD_code = QIFWIN | q = 0 | S = 0 | Stoichiometry = C54H38MoO2 | MND = 11
Mo        2.87686093865454    0.75433434813475   13.31781841606951
O         0.04898345937363    0.89567173394185   11.29384523188422
O         4.20219879108015    0.88657445985399   16.07678537328465
C         0.54374372550029    0.52296675711550   12.35120299335496
C         1.26364403004032   -0.74137013031722   12.65083689549025
C         1.46062935454004   -0.83345126236789   14.06279249602333
C         1.00947065306907    0.41578040690408   14.66378538917560
C         0.62027591513117    1.27981432589307   13.60985148941355
C         2.90027831773587    2.37164116166547   11.39617082608361
C         3.75276115041349    2.82185922415861   12.46099990501117
C         4.71994004099503    1.80482318642852   12.70766621532655
H         5.63421214187819    1.99273855371032   13.26219590705222
C         4.45539299113553    0.69391983825735   11.81191788088089
C         3.30438438279356    1.07349077324173   11.05051343487067
H         2.87938032376445    0.46396950518439   10.26447569040461
C         4.54923196163293   -0.63810520765326   12.28050926601319
H         4.04459192357733   -1.38915456807588   11.67464478123127
C         5.65306659716667   -1.18145550567003   13.06619039120346
C         5.52367989049495   -2.45808575278177   13.62155910727324
H         4.61932372636757   -3.01925746295145   13.44232363902466
C         6.52881876031865   -3.00679536200609   14.39175091408226
H         6.39915918095090   -3.98997077179689   14.82034877867880
C         7.70400016537490   -2.30516568169759   14.60632434560790
H         8.49137652792787   -2.73154232787455   15.20960565363909
C         7.87060031579749   -1.06275162036345   14.01825117042494
H         8.79787670764018   -0.52403170911399   14.14965571628372
C         6.86207048005726   -0.50711093152391   13.25428066623253
H         7.03436918178579    0.43959464738063   12.76339954388070
C         3.89364774783573    4.17931421673737   13.00338885220911
C         3.97537316620274    5.27797100299720   12.14825244198946
H         3.90288612935666    5.12864832090329   11.08046291236505
C         4.14816935444501    6.54973129364226   12.66008143457172
H         4.20591996186661    7.39276675390154   11.98743088586887
C         4.25013499396222    6.74433044629932   14.02780495469054
H         4.37872255351113    7.74018253127637   14.42498746304526
C         4.19334515295536    5.65641814051901   14.88229826075358
H         4.28223290435742    5.79977200019564   15.94903653744497
C         4.02229726477594    4.38180904477802   14.37486826820054
H         3.97607804959744    3.53194014944731   15.04209052623180
C         1.84301885267000    3.12491806819365   10.72979679012732
C         1.44919161411177    2.76745861285985    9.43773555900100
H         1.92082490349152    1.93413407106365    8.93940432452564
C         0.47103002318885    3.48050955478217    8.77486613373282
H         0.17607604305114    3.18424433183561    7.77881176330574
C        -0.12897672027896    4.57129994261639    9.38085178079147
H        -0.89095320930808    5.13156587107741    8.85915070701556
C         0.25241896160496    4.93638290692068   10.66006237999864
H        -0.21091665919374    5.78260774437813   11.14533720756073
C         1.22010976592809    4.21770332268934   11.33440791363823
H         1.48398469811751    4.50469087420003   12.34011779182135
C         0.07260334868119    2.61897870019877   13.81562291256059
C         0.63593280809892    3.46025574092005   14.77805807549057
H         1.48728990404512    3.11741488524350   15.35044258687218
C         0.11721226296533    4.72074637578813   14.99332508798796
H         0.56842012954680    5.36688596540212   15.73214013961628
C        -0.97967070650167    5.15657415810152   14.26531539185896
H        -1.38857976700286    6.14089116804694   14.44115337213122
C        -1.54681697382167    4.32719138464067   13.31323632040590
H        -2.40231833963367    4.66136422298605   12.74447509874354
C        -1.02201925884987    3.06936708592544   13.07913476500750
H        -1.45412111032888    2.42847445152162   12.32656648039617
C         0.54641164677559    0.51757450695205   16.05879668060337
C        -0.74282668951447    1.00354607421015   16.29088699291376
H        -1.34742818130203    1.33112434580568   15.45839149208729
C        -1.26041449569539    1.05357697473485   17.57054352094874
H        -2.25866068393770    1.43515014579035   17.72638918157860
C        -0.50871350621505    0.61122458330646   18.64581393609235
H        -0.91320332176033    0.65185236546073   19.64609563823184
C         0.76205909528725    0.10948426673371   18.42612395639602
H         1.35432052931553   -0.24682534676477   19.25577994418405
C         1.28554106907032    0.05794500196784   17.14711830632292
H         2.27832038670783   -0.33503184149464   17.00258414404127
C         1.55677981233587   -2.05808505150137   14.88362909611990
C         2.72569509032500   -2.42528719739679   15.54304274720016
H         3.61680900614931   -1.82495884299249   15.41884408547348
C         2.75316250142368   -3.56008279360951   16.33354338055879
H         3.66779336819170   -3.83743819232007   16.83633195702861
C         1.61461340374640   -4.33424534615025   16.48142057620736
H         1.63779174746990   -5.21910115049766   17.09983583750251
C         0.44552365674339   -3.97011774843041   15.83454185472369
H        -0.44596796587320   -4.56851359187363   15.94965218452765
C         0.41310129441471   -2.83803928015017   15.04166466159895
H        -0.49711021057957   -2.54974824692373   14.53527210168340
C         1.42548575904000   -1.82903740150349   11.68503489152175
C         2.04732224013173   -3.03401046891764   12.03071276957914
H         2.39926384797749   -3.18593065272234   13.03823907813027
C         2.21628272206222   -4.04069583634615   11.10034936377981
H         2.70144793730848   -4.96024069863635   11.39500258053349
C         1.77147278754306   -3.87646520843355    9.79915714759239
H         1.90675501418812   -4.66429030080454    9.07293350834839
C         1.14896036340555   -2.69264285844776    9.44161196222087
H         0.79333514159971   -2.55325098828915    8.43078596252612
C         0.97761821881125   -1.68137122419880   10.36750265230414
H         0.48154654174754   -0.76853403759258   10.07607094806241
C         3.64684238844080    0.78259207326726   15.07327962153212

