88
CSD_code = QIFXEI | q = 1 | S = 0 | Stoichiometry = C42H40NO2P2Ru(1+) | MND = 8
Ru        4.91161051194179    5.11633058964392    6.16410708197149
P         2.89834339724723    6.03983779085462    5.33669330899439
P         4.34854641530659    2.86697538272266    5.87431196591379
O         5.62480953495270    5.99144648146796    2.41081152536982
O         4.56665697477238    7.50162241952433    3.72466285721700
N         4.24963237386235    5.02586639588009    7.96539367558244
C         6.19855009985890    6.21024132969394    4.72107319234306
C         6.94354012263130    5.02989193224834    5.00027636761467
C         7.19696228264713    5.03637591966390    6.40395421817874
C         6.74344921276942    6.26905555698182    6.95692810275985
C         6.07734358987137    6.97827190702147    5.93835351484313
C         5.49961714842851    6.53631724526745    3.48067322905652
C         3.38898881750685    7.39397917943836    2.94097322314417
C         2.59513833227048    6.21287036436377    3.50094919109070
C         7.58218528724298    4.12644736577312    3.99913040877724
C         7.05098543112127    6.76470817944392    8.33276068964156
C         2.50704148553343    7.70090991559267    5.97727767509105
C         1.50130941352275    8.47537387352803    5.40413277457581
C         1.20395073678202    9.72096790841277    5.92584271991940
C         1.89187743026413   10.20076051575708    7.02908681302221
C         2.86835995764655    9.42049508702389    7.62463097898918
C         3.17168066018435    8.17578419267576    7.10204972672933
C         1.35931550239512    5.16741761064551    5.78626389653374
C         0.90938933362604    4.09278458822560    5.02408827656648
C        -0.22549855461886    3.39845871073883    5.40127534012150
C        -0.92487892725612    3.77007569613140    6.53747956590024
C        -0.48343325419423    4.83892597650758    7.30011446008909
C         0.65733430984655    5.53020043098679    6.93354246682150
C         3.71210373226991    2.35238338286364    4.24854334757722
C         4.21578637977590    3.02549818313685    3.13778429462514
C         3.80122128873843    2.68574597715444    1.86314129163480
C         2.86938353137546    1.67444398760053    1.68952355449742
C         2.35672913984760    1.00924614644869    2.79211675499738
C         2.77197750442265    1.34224409804724    4.07012755495222
C         5.86007837952752    1.86879684452206    6.06377874628770
C         6.38762999663789    1.05526741801666    5.06817606087869
C         7.53588403249075    0.32014402876665    5.31933332934124
C         8.15667654017991    0.39374944231365    6.55444821738603
C         7.62929269682709    1.20208949173501    7.55158234584531
C         6.48681591563083    1.93797912293858    7.30692495163359
C         3.28002287821127    1.95925709515052    7.04643378806789
C         3.42708084517011    0.58120752811010    7.20450252481013
C         2.60007046586513   -0.10965056817021    8.07041891643089
C         1.62189157406661    0.56176964614955    8.78736082529021
C         1.47416277624675    1.92990692068447    8.63592676716754
C         2.29934597117307    2.62584878260335    7.76997550297254
C         4.06139787512351    5.07554182694697    9.10443502000368
C         3.76051825167451    5.09730028428432   10.50350472512625
H         7.84788717699086    4.33557905853994    6.90862052278229
H         5.75688241359112    8.00920711967656    5.97671869461990
H         2.86490506672496    8.34166942494262    3.06875178163806
H         3.64451304425229    7.24724998342996    1.88662836610175
H         2.92994744423008    5.28156367864025    3.03352810058803
H         1.52353024725138    6.31907100550925    3.32191822077468
H         7.49053818434484    3.07620224941093    4.27099275852002
H         7.16787962796627    4.28960518783622    3.00715410763349
H         8.64684671149953    4.36666164252321    3.96277700017297
H         7.07497523719523    5.94770775242503    9.05278079543879
H         8.03703087522644    7.23280844756340    8.32461066473195
H         6.32903978813749    7.51225151718547    8.65756168295444
H         0.93718987324487    8.10314992871680    4.56184330165324
H         0.42890167704117   10.31952019412140    5.47160940752416
H         1.66001013967736   11.17591033116279    7.42855304961395
H         3.39349459651421    9.78345967206107    8.49591076745126
H         3.92395995128047    7.55518586990021    7.57374750591666
H         1.44438101866933    3.79997922256758    4.13327947742038
H        -0.56689404551814    2.56779013384829    4.80245429325025
H        -1.81353529183286    3.23035459729069    6.82624263209196
H        -1.02984480229826    5.13620946117680    8.18277815190490
H         1.00573076420853    6.35866329852741    7.53516492366432
H         4.93731233961610    3.81955033041030    3.27961745531735
H         4.20365600026558    3.21345246394868    1.01170251948549
H         2.54067142598819    1.40741922495087    0.69697787425548
H         1.62755715072212    0.22469155045306    2.65684470483697
H         2.35894334351606    0.82572561440918    4.92357281615894
H         5.90062949128379    0.99051918560039    4.10504545524108
H         7.94448294953650   -0.31182863543887    4.54542217434278
H         9.05017010045222   -0.18077728906865    6.74383171472166
H         8.11121768681909    1.25309636283851    8.51664052850226
H         6.05641461927256    2.57262757200727    8.07526645868966
H         4.18855492745106    0.05074832060401    6.65012867122643
H         2.71830401037783   -1.17647190901937    8.18552309193018
H         0.97859778865284    0.01797299353397    9.46197232519309
H         0.71247912823877    2.45894068703611    9.18894832945151
H         2.18605656034799    3.69270848543852    7.64624393420410
H         2.74510325666214    5.46397559352969   10.65499365035180
H         3.83923786979189    4.08978220183277   10.91290150836871
H         4.45616425118090    5.75160528434420   11.02876481488821

