58
CSD_code = QIFYUB | q = 0 | S = 0 | Stoichiometry = C22H12CuF14N5O4 | MND = 4
Cu        3.76177668167194   11.57430239437873   12.45687600884439
F         8.17726671615941   12.77657885933306   11.72336038282945
F         8.21992572026586   10.93299119090593   10.59492247225828
F         8.51779492675299   11.13485809945684   14.09933778164134
F         9.00129016015867    9.51757609409827   12.72867591437769
F        10.42612077280870   12.67992152223416   13.15376933961447
F        10.75400827780221   11.45772254766314   11.41403292046870
F        11.24572894764882   10.70656269604498   13.36487594378966
F         4.83094418483291    7.73175638970351   15.01228783693826
F         6.88833893446895    8.27791811169738   14.71188271812024
F         4.80819467370852    7.31815339107530   12.06093626840777
F         6.95862772233744    7.29538194521150   12.26566666558880
F         6.09216987746172    4.81317641466217   12.50835673743192
F         4.47042186618842    5.37620651621095   13.79914432985302
F         6.49993955994459    5.46215710913345   14.51622090279180
O         6.39607713336443   15.88236809676335    6.96091864002209
O         5.92252631032674   17.28324832227829    8.52009612475260
O        -0.96950716749862    7.04504121691681   15.68696698255795
O        -0.48848702548978    8.23850756542537   17.40788360461046
N         5.51837235225493   11.94582519556996   11.74720820923491
N         6.36524764242256   10.07280220083587   12.89930222439441
N         4.10465453853171   10.02121194386385   13.55764039314289
N         6.11312782636937   16.16101619858916    8.10502099733792
N        -0.28316494421553    7.84788114176842   16.27973996586683
C         2.45452497490795   12.83314951233270   11.69529059803694
H         2.68617338571041   13.83876490590342   12.01371729292608
H         2.40785324386919   12.68635259083124   10.62588088277185
H         1.57598758706795   12.25670833873488   13.55325381265748
H         1.28978882741791   11.10611965951102   12.16429921500564
C         1.83548506990089   11.95617264952961   12.54825056296979
C         6.46151330936582   11.16720824276646   12.17555141691467
C         5.30338292398001    9.54634489268160   13.47502970802403
C         5.72270980759333   12.99640157919959   10.83701349468446
C         5.53020054400996   14.31168011822068   11.26333782521216
H         5.29838170259805   14.50095521107914   12.30005166433817
C         5.66743665939608   15.35054371924058   10.36992377524813
H         5.53739172189445   16.37683653646539   10.67731734618395
C         5.98359804556818   15.07326753859521    9.04430468534620
C         6.17304532980606   13.76745327547333    8.61002428332342
H         6.42396060435569   13.58467383769858    7.57642625076421
C         6.04262752091389   12.72730729950570    9.50661460024354
H         6.18497877557833   11.70715935783431    9.18535075197016
C         7.93335610199362   11.44587546654048   11.81268156265372
C         8.93068387883696   10.84944549277732   12.84751866051227
C        10.36910107191253   11.43559450598118   12.68570367077578
C         5.70460219714763    8.18996104670274   14.08512502503230
C         5.81915566371917    7.13152527039340   12.94580030675042
C         5.72624002061749    5.66396821947092   13.45945943343471
C         3.03917921168752    9.42612488884062   14.25727178613496
C         2.22654551824346    8.48459216211038   13.62555133003777
H         2.45997929389907    8.16706170548221   12.62128658307389
C         1.13884346247294    7.96252842542605   14.29238384303087
H         0.50070275756879    7.22548725073079   13.82977914185938
C         0.86068271049836    8.38820215179409   15.58558442333415
C         1.66321454535165    9.32909135384175   16.22015053994235
H         1.42355194078663    9.63394971070342   17.22731028254113
C         2.74987734900015    9.85229332978072   15.55353111284191
H         3.39034855405560   10.57983458999515   16.02720076655332

