79
CSD_code = QIFYIN | q = 1 | S = 0 | Stoichiometry = C30H40NO5P2Ru(1+) | MND = 8
Ru        2.44757282709527    0.26605231847614    9.23447937376822
P         1.28495491963420   -1.14113819024022    7.75037833330612
P         3.90035600049791    0.80004447986234    7.58191743071761
O        -0.30607566188338    2.47038081421444    7.60724899189485
O        -0.82927842682397    0.43869694568393    8.45462663229963
O         3.18218650603100    1.36430704331323    6.28110436203764
O         4.82640414933954   -0.44781209816365    7.12625933441800
O         4.98325504668835    1.97401165442153    7.84322519634662
N         3.59063378138705   -1.21200215691847    9.72247462505146
C         0.79037706583719    1.66231971694634    9.56727035258555
C         1.96818113401056    2.45572178537001    9.60647897575096
C         2.74784916793195    1.97430288230538   10.70052852222883
C         2.01752590085684    0.96433234403176   11.39721852621264
C         0.82898505776414    0.72428408561135   10.66611447141215
C         2.24996645174910    3.66571547854124    8.78285315718076
C         2.37242793241501    0.42877825495260   12.76492400867596
C         3.89033053262690    0.44547665540993   12.98239100417604
C         1.69592860250544    1.35981944436555   13.78473150309484
C         1.85956578637890   -1.00031363805275   12.96446886193556
C        -0.16845018725001    1.63192553962274    8.46239301660108
C        -1.17383357550197   -0.01930766255538    7.15570571999437
C         0.13440845076983   -0.42346332260391    6.47633729342186
C         0.28295539051581   -2.46705926060625    8.49097975756857
C         0.36153503074772   -2.69161410646072    9.85860338963350
C        -0.37103375674330   -3.70802479688882   10.44560413588296
C        -1.18527365376827   -4.50990490132872    9.66372243233309
C        -1.25122354570500   -4.30387897441892    8.29417720599134
C        -0.51803374648832   -3.29087125140115    7.70441206948867
C         2.38409021918460   -2.13427730185362    6.69013160631399
C         2.95960255822916   -3.27855433946415    7.23641091157969
C         3.82233983711259   -4.05464292077609    6.48577408493605
C         4.11840695418464   -3.69794853598656    5.18040223003453
C         3.55201340155008   -2.55916057881184    4.63250451536076
C         2.69353438378522   -1.77415806075775    5.38279741836559
C         3.59733619542789    2.42896273971440    5.41662104032434
C         5.80271920428571   -0.32672104450343    6.09072997583742
C         5.88971413742577    1.83193975368428    8.92835510879687
C         4.28027032584437   -2.08000486935975   10.04760865030813
C         5.13305734080082   -3.16406903463002   10.42784864741074
H         3.62977430710278    2.47449432378688   11.07365745240189
H        -0.02482429130727    0.14638372027482   10.98776434270356
H         3.31723687906892    3.80621433266917    8.62457042711693
H         1.73640722038947    3.60688348888007    7.82531333227494
H         1.86485699211827    4.54112874952725    9.30987884921715
H         4.13340412747918   -0.05056183407780   13.91853714692869
H         4.39896883543714   -0.07714999641107   12.17178975525066
H         4.27040505198516    1.46214963857002   13.03810896394839
H         2.03280734686222    2.38559190251620   13.65337184394263
H         0.61509188163989    1.33589601686983   13.66775663819098
H         1.94190994429182    1.04251426914781   14.79475284038165
H         0.78114782391726   -1.05416207253067   12.84136502896325
H         2.33497786152830   -1.67700841029142   12.25531544673955
H         2.09781637915727   -1.33787762355156   13.97020921094216
H        -1.83401138455673   -0.87343958955245    7.31194979625021
H        -1.69709675998700    0.76490174189960    6.59940858492122
H         0.62727792132093    0.45853774909372    6.05598567187860
H        -0.03197430126296   -1.15099278239898    5.67993744172548
H         1.01014336704084   -2.06114272460757   10.45280824998524
H        -0.30793816943649   -3.87440433541730   11.51079755225895
H        -1.76386870227651   -5.29938229890594   10.11804961099003
H        -1.87590752874679   -4.93784477359854    7.68332179385410
H        -0.55996024612104   -3.15077223484197    6.63385125726156
H         2.70754748136506   -3.56364989546767    8.24923209181158
H         4.25607469165020   -4.94712593474978    6.91225004143094
H         4.78502799732599   -4.30776298603277    4.59000889827120
H         3.77578315102224   -2.28529972750394    3.61155416373626
H         2.26935387374501   -0.88093115429809    4.94931414947038
H         4.00292535377697    2.00934740607456    4.49519326201438
H         2.70822779260960    3.01789135266641    5.19136375932289
H         4.34371612938254    3.05981855293644    5.89415302342614
H         6.58381685605862   -1.05494966947489    6.30586113357814
H         5.34764263748756   -0.55911754620559    5.12724436833524
H         6.23185423491661    0.67673790004107    6.05979342036227
H         5.42953429121998    1.27388356939164    9.74929878099414
H         6.78896517346274    1.30561658473921    8.60479002579757
H         6.15470824240849    2.83544729868375    9.26040575506933
H         4.54749978285600   -3.95467679312029   10.89805392860720
H         5.62292830766577   -3.56211776457657    9.53913245689813
H         5.89166770893761   -2.81861334088148   11.13053662953266

