60
CSD_code = QIFZEM | q = 0 | S = 0 | Stoichiometry = C23H11CuF14N6O5 | MND = 4
Cu        0.98736013649604    1.19896254815175   10.82797755438109
F         4.37837955647478   -2.22290537626663   10.61674751994834
F         5.83558868477712   -0.64712620074537   10.49879281241015
F         3.71982962537675   -1.14272717081489    7.78419993731498
F         5.77488143982210   -0.50716058956956    7.94666486236931
F         6.34593676899912   -3.17590616699793    8.93477190329970
F         4.31616959040139   -3.65668212392814    8.38468407525856
F         5.69077712303178   -2.93594651245555    6.90173356333823
F         5.16639768416270    4.08263266460788   10.02192326789714
F         3.46471503475725    4.41990582300742    8.72460552352435
F         4.35553991808672    2.02558839565091    7.28501071374602
F         6.20381816578319    2.26131701932480    8.40977227971586
F         6.47312625875056    3.58923071029150    6.17039151608933
F         4.48014861863000    4.38287332180175    6.24771450975701
F         5.98434885168080    5.10719794190032    7.60915577436707
O         0.00276412736130   -5.56056284604535   12.88778448000320
O        -0.20987669623875   -5.94529602706917   10.78455621475526
O         1.41428711248361    8.41342217215229   12.81113329068845
O        -0.41776444796310    8.10001237268800   11.73254135536704
O        -0.86666592017176    1.33906499420636   13.08892914204838
N         2.39304556836507   -0.26631925561942   10.59424266101269
N         4.05429388929032    1.17873635287272    9.76893076321812
N         2.41672774417587    2.65978950600391   10.57958336925288
N         0.13426066890710   -5.25737836463975   11.72148949116635
N         0.67923423782327    7.74900359242875   12.11287619061651
N         0.69019663419983    1.15869682397149    8.84458081733837
C         3.57505874389895    0.01488559917715   10.17349086040257
C         3.49347091055493    2.36152131854877    9.93146664050960
C         1.88755187814830   -1.53771724454313   10.86331783076803
C         1.69843026791238   -1.93170970437325   12.19020040969030
H         2.01474814836984   -1.27326778663711   12.98433097357577
C         1.13200072978050   -3.15399910152783   12.47244705608228
H         0.98908487907286   -3.48454465879279   13.48989376743229
C         0.73678038735959   -3.98286677155340   11.42752915388235
C         0.90847574035675   -3.59585277608663   10.10400921149097
H         0.59498286903686   -4.26113769959320    9.31444968441314
C         1.48070806612794   -2.37461987869031    9.82251068546418
H         1.61477267729539   -2.05628846705714    8.80067851201568
C         4.66406904940273   -1.06024974459712    9.98392370385400
C         4.87696751332955   -1.35000211370065    8.46582621005946
C         5.32511682959322   -2.81202528608788    8.17391626704106
C         4.29868319916880    3.45610859296734    9.19902714659328
C         5.10864703806392    2.90205802669530    7.99250948673161
C         5.52791925974477    4.02574219375167    6.99396395072099
C         2.02131622703155    3.94653389143031   10.92348605099906
C         2.82971392809590    4.75430650753352   11.72822009191143
H         3.79344295760149    4.39345106715703   12.05239747646903
C         2.38971431059626    6.00069070845129   12.11849823089412
H         3.00217652864274    6.63925718958540   12.73645059624793
C         1.13909651258956    6.44654351325441   11.70802109339067
C         0.31984581047345    5.64634073708492   10.91710307200480
H        -0.64717333715095    6.01920623004802   10.61616421807300
C         0.75604906732053    4.39871039716861   10.53561862282662
H         0.13744796591097    3.76075548892217    9.92258238564806
C         1.04756965621660    1.14168176650966    7.75466379378306
C         1.45778615068996    1.11927672386399    6.39628693863405
H         2.37854280967775    0.54122192296211    6.31283563249136
H         1.64613767523341    2.13817911191819    6.05618052865018
H         0.68080483698488    0.66542488563987    5.78057197619421
C        -0.17495966255822    1.27286175547634   12.19403415215358

