115
CSD_code = QIFZOW | q = 1 | S = 0 | Stoichiometry = C48H62CuN4(1+) | MND = 2
Cu        1.10286787445154    4.45797359797203   -0.22259949497518
C         1.13253617444194    5.80820901430371    1.19426631378956
N         1.15728054933803    7.14680154292048    1.03026968043009
C         1.16147307412376    7.78044783869115    2.24202964089079
H         1.17391593260268    8.84693678204210    2.32933136245549
C         1.14231177768165    6.80999812132121    3.18856927746434
H         1.10788073582465    6.87490269038454    4.25615294304843
N         1.13839938340928    5.61210787658390    2.52923556528099
C         1.10701578150509    7.78993764553615   -0.24161409202817
C        -0.14260390761765    8.07670965713857   -0.79567053428070
C        -0.17899338816478    8.64764479789843   -2.06050788005778
H        -1.13048647910402    8.87196100874151   -2.51478409684159
C         0.98797475680543    8.93163761611092   -2.74225715561998
H         0.94351747241007    9.37708862585219   -3.72457587938522
C         2.21485046373495    8.66294775816348   -2.16658894757726
H         3.11794320613146    8.89901058357179   -2.70594936881908
C         2.29884474952838    8.09454350238557   -0.90259762208822
C        -1.42765632169661    7.78449711727677   -0.05823211222529
H        -1.19511599637751    7.42188367590551    0.94794960833205
C        -2.27045930994600    9.05229049208597    0.09617566816179
H        -1.69389887055365    9.83965230754119    0.57675635005191
H        -3.14457946969943    8.84343775971351    0.70818270906797
H        -2.61129615764816    9.41740763234719   -0.86819892979440
C        -2.21340873829311    6.69036082902125   -0.78232559886831
H        -1.61115318532175    5.78870775248472   -0.87943443835468
H        -2.49664698950534    7.01509294572935   -1.77894611150656
H        -3.11715184626959    6.45059851656167   -0.22763447736759
C         3.64372544066953    7.80028028405147   -0.28058198243048
H         3.50237185501360    7.58120080769655    0.78277698702460
C         4.58956830729806    8.99833688927965   -0.37723010201705
H         4.10979116326927    9.89711784892581    0.00331372513751
H         4.89695268976879    9.17954004279292   -1.40296867960865
H         5.48342198921564    8.80903296374628    0.21218362929360
C         4.26254175649514    6.56528752720094   -0.94105587735426
H         3.61571160884242    5.69865584898718   -0.80744005171154
H         5.22769555611963    6.34545739864421   -0.49203554566623
H         4.40577190273021    6.73408693575391   -2.00563013325821
C         1.01715143378150    4.34132401130274    3.16441488791450
C         2.13781230883769    3.68877467789164    3.68469487638924
C         1.93190692699628    2.47620683721172    4.33451929740055
H         2.78062621444068    1.96542245897730    4.76343496998057
C         0.67444520490733    1.91886218854465    4.44833484912678
H         0.54346757269829    0.97794381355259    4.96109926970341
C        -0.41542565865712    2.56853116468923    3.90467917086830
H        -1.39541582711613    2.12669255657603    3.99032959161238
C        -0.26611007762750    3.78957208807003    3.26183510648416
C         3.56310280513707    4.19539798190362    3.62552748173129
H         4.19277587746006    3.33144665414123    3.86144357192708
C         3.82329762337525    5.25199960957208    4.70452737190032
H         3.47545706603302    4.90200003046558    5.67371123171771
H         3.32218910757388    6.18758978348306    4.47052832925147
H         4.89004169048133    5.45046684984661    4.77398364994947
C         4.00148158527379    4.70074663899243    2.25141813968616
H         3.63104244291038    4.04649793811808    1.46510952462681
H         5.08760476209659    4.71322380273980    2.20109712943510
H         3.65454846088666    5.71244636874336    2.06570109468162
C        -1.48824976997527    4.48048890391016    2.70064229477631
H        -1.20403918677739    5.44715208671409    2.27538199253773
C        -2.51731716461232    4.74664285776454    3.80172785189325
H        -2.06794850796617    5.30987547477056    4.61674034431057
H        -2.91277177572496    3.81892878211815    4.20490685888798
H        -3.34737143810435    5.32384559188860    3.40142405264615
C        -2.09672043587035    3.64597337577676    1.57112047812353
H        -1.37565132384872    3.52989216221458    0.76243675467306
H        -2.97944675663163    4.14123045475050    1.17491373650474
H        -2.38497305552670    2.65981124795735    1.92462034418040
C         1.14238782000470    3.06732324652839   -1.60616157399156
N         1.89436944931069    1.97568078483289   -1.51003989001513
C         1.74205514860091    1.06714752780698   -2.64409442056401
H         1.36323269913902    0.10119790762522   -2.29926658143788
H         2.70716006676191    0.90342403712733   -3.12923596472853
C         0.74451697336116    1.81587303863654   -3.53114485677428
H         1.16481738009572    2.10153741236965   -4.49967289241497
H        -0.17241194806186    1.25088754562147   -3.71098511948352
N         0.45597724302986    3.01424971270696   -2.74212608647364
C         2.75991311893751    1.66561224848735   -0.42666696490127
C         4.11461171162856    1.99061305111911   -0.52005061240528
C         4.94895170276634    1.65625583865396    0.53508117686927
H         5.99884007704728    1.90153591883049    0.47105248973631
C         4.46761546918254    1.01132302612784    1.66659950821855
C         3.11490714496642    0.71330962002911    1.73767177964522
H         2.72384394656704    0.21339395409393    2.61080584680716
C         2.24543752642543    1.03476899118126    0.70659265491602
C         4.66648214134035    2.67780873173483   -1.73269988440056
H         5.54860381292550    3.25588465342049   -1.47121352739280
H         3.93247915388121    3.34585461560215   -2.17858040694017
H         4.96211805223693    1.94242077593196   -2.48154129121253
C         5.40138175210100    0.63649721148612    2.77407546707506
H         4.85517945149589    0.36504997568965    3.67340983392717
H         6.08087690009295    1.45543349441576    3.00128628084417
H         6.00616963118069   -0.21897984334183    2.47438342930386
C         0.79013223586295    0.69274649548447    0.80782541530943
H         0.17134778729300    1.49401364782841    0.40823136778206
H         0.51306269658097    0.52872449059513    1.84522916489543
H         0.57362662303275   -0.21849838513921    0.24962770118735
C        -0.41672591602178    4.01734959120959   -3.24269050161026
C        -1.79689415551344    3.82320245876868   -3.17933537509222
C        -2.62707518020146    4.78989179336565   -3.72648401615108
H        -3.69649851122155    4.64451231482352   -3.68569262267387
C        -2.11626735326317    5.93464469314471   -4.32169554574582
C        -0.74006809154769    6.11275148570233   -4.34904921075243
H        -0.32837760023487    7.00166358463455   -4.80269938584218
C         0.12396277608826    5.16926588387448   -3.81770694868576
C        -2.38759337560328    2.60444815465296   -2.53643113549061
H        -1.73288260938285    2.20429555410085   -1.76511940718732
H        -2.56072700276959    1.82734693172687   -3.28146432805007
H        -3.34657899878301    2.84605676528136   -2.08539830716699
C        -3.03408806171298    6.94676942483876   -4.93241648268076
H        -2.54466950672063    7.91266920089481   -5.02810124812440
H        -3.93877931365623    7.06094263914451   -4.33919366429921
H        -3.33165388467439    6.62050094985428   -5.92886656755117
C         1.60586265132874    5.38862097191970   -3.85013736876530
H         1.84851772857151    6.24566568439769   -4.47126948721519
H         2.12715742331404    4.51697756477964   -4.24270135309066
H         1.97596957338900    5.58206398848240   -2.84287768671771

