113
CSD_code = QIFZIQ | q = 1 | S = 0 | Stoichiometry = C48H60CuN4(1+) | MND = 2
Cu       -2.44657112853622   12.23759487494977   12.46338853719090
C        -2.44657957733079   10.27420026797971   12.46338585330342
N        -1.94076774546824    9.45527472746671   11.51930928844622
C        -2.12636466364428    8.14570410905998   11.86595523531080
H        -1.79110248222209    7.33925673331909   11.24745864211670
C        -1.31758002022764    9.91408537756185   10.32339736469681
C         0.02973277326815   10.27582356134574   10.35850565253686
C         0.60015434958284   10.76528988117145    9.19020125246135
H         1.63919293130942   11.05432464931252    9.18452758022560
C        -0.14711816787259   10.88582908800652    8.03519890549229
H         0.31356092472255   11.26857363192882    7.13698372275253
C        -1.47640032773090   10.50697312923667    8.01847693163441
H        -2.04409464890979   10.60031148658040    7.10772232330619
C        -2.08529438004024   10.00401778291622    9.15899817738517
C         0.86017194720629   10.13808508941477   11.61375918394680
H         0.25368603300625    9.67957124387358   12.40124263251105
C         1.30737018498603   11.51276253976824   12.11592897394212
H         0.43869805736180   12.12873111999265   12.34777107908036
H         1.90853809818847   12.02432638083676   11.36886023247520
H         1.90086822293156   11.40548118540240   13.02032377415021
C         2.06592522637120    9.22879104475800   11.36705735641017
H         1.74417745897243    8.26482557527390   10.97924488776043
H         2.60280936615497    9.06376910532854   12.29799725574673
H         2.75327341497468    9.67267748854559   10.65274299728953
C        -3.54172965855769    9.60066568100978    9.15802381378771
H        -3.71435496487342    8.89374422256843    9.97677210698115
C        -4.40769120719661   10.83919481763147    9.40447084205493
H        -4.13228670772060   11.32376993692154   10.34022530151359
H        -5.45751054140169   10.56055145121879    9.45039507132143
H        -4.27152943852084   11.55887275562742    8.60218965922801
C        -3.95860438956255    8.90561102078108    7.86197960203492
H        -3.26313616459483    8.10793568089465    7.61172407833555
H        -3.99923246725689    9.60597173613244    7.03260528121938
H        -4.94905620363069    8.47299348652868    7.98111199466902
C        -2.44656700292294   14.20025654195649   12.46338774930860
N        -2.20842505879482   15.02036257999042   13.50767435658795
C        -2.29447535116708   16.32893603281997   13.12345165099699
H        -2.14173862216656   17.13581286340405   13.80959283120328
C        -1.89657241033958   14.60655584532968   14.83376682692577
C        -2.92623097342723   14.22818535543264   15.69326310296551
C        -2.59941992114157   13.87083481091718   16.99232777969851
H        -3.38964240797928   13.58196896262481   17.66837511375833
C        -1.28677450404434   13.88848575331090   17.44150573040221
C        -0.28231035695516   14.26583557087647   16.55815825163597
H         0.74294331478460   14.28036543333578   16.89709505183416
C        -0.56531186581751   14.62687019044328   15.25094614818195
C        -4.34754833711880   14.21089528194059   15.22251416721229
H        -5.02241304125130   14.04991355005059   16.05760660550771
H        -4.49341285969710   13.40314949500899   14.50553549658863
H        -4.61105503359141   15.14993528841736   14.73707481952126
C        -0.95120643501131   13.52472603267951   18.85376912381970
H        -1.76918013414059   12.98595553869890   19.32478677882572
H        -0.76337618147162   14.42834481194314   19.43321636779935
H        -0.05086103601937   12.91497813625538   18.89443329387923
C         0.52480592968657   15.03562514723012   14.30777479159938
H         1.49779182684144   14.78832766959494   14.72175861051622
H         0.49520021795733   16.11066634992975   14.12989088409648
H         0.41776183955364   14.53364200070284   13.34696651551657
N        -2.95239532493047    9.45527439923627   13.40746020343671
C        -2.76680389519935    8.14570378042129   13.06081096258458
H        -3.10206913090378    7.33925716034782   13.67930684473372
C        -3.57557817164237    9.91408648859306   14.60337408868783
C        -4.92289226319616   10.27582045348330   14.56827222253840
C        -5.49330871284985   10.76528973863214   15.73657784706635
H        -6.53234838675467   11.05432055924144   15.74225590440621
C        -4.74602962678856   10.88583724764425   16.89157515419415
H        -5.20670372568504   11.26858584377416   17.78979125485744
C        -3.41674623174092   10.50698546011174   16.90829081580604
H        -2.84904544051637   10.60033083827843   17.81904078382954
C        -2.80785763577139   10.00402593547136   15.76776846877601
C        -5.75333664873891   10.13807453280042   13.31302295888419
H        -5.14685353155510    9.67955701852213   12.52553927738886
C        -6.20053846223171   11.51274941211472   12.81084937044892
H        -5.33186763512699   12.12871593671009   12.57899790745359
H        -6.80170072522138   12.02431834071773   13.55791929511865
H        -6.79404226984257   11.40546355259210   11.90645890834443
C        -6.95908918331637    9.22878192958775   13.55973386119310
H        -6.63733925492610    8.26481934812143   13.94755140466160
H        -7.49597522622655    9.06375303430797   12.62879629866799
H        -7.64643641371396    9.67267176947675   14.27404715133335
C        -1.35142167399005    9.60067676633230   15.76873842962004
H        -1.17879204465165    8.89377203581068   14.94997667556254
C        -0.48546181469398   10.83921238117956   15.52231886555414
H        -0.76086653390356   11.32380657670833   14.58657424808584
H         0.56435796200749   10.56057174076405   15.47638948820223
H        -0.62162525819054   11.55887326034345   16.32461505542263
C        -0.93455191489688    8.90559606290394   17.06477044284839
H        -1.63001879606314    8.10791294300941   17.31500502429610
H        -0.89393151394466    9.60593902548983   17.89416008036708
H         0.05590204894831    8.47298449800587   16.94563469235352
N        -2.68471041705041   15.02035902946857   11.41909830828531
C        -2.59866287512195   16.32893338804874   11.80331701612364
H        -2.75140076709125   17.13581031869667   11.11717614469827
C        -2.99656664055331   14.60654802979854   10.09300806528987
C        -1.96691069518934   14.22818312719204    9.23350645644955
C        -2.29372679799483   13.87082693161617    7.93444427928884
H        -1.50350588047821   13.58196576631330    7.25839308590662
C        -3.60637493450764   13.88846673216514    7.48527461450676
C        -4.61083664768000   14.26581193564389    8.36862718259262
H        -5.63609234761853   14.28033308129379    8.02969605525665
C        -4.32782990641029   14.62685306856817    9.67583614213231
C        -0.54559044112689   14.21090157685593    9.70424671958150
H         0.12927404470342   14.04998538236635    8.86914136823749
H        -0.39970279008060   13.40311625097706   10.42117624402568
H        -0.28210343483570   15.14991861403124   10.18974074043130
C        -3.94195130420627   13.52470076347684    6.07301473863483
H        -3.12396616519005   12.98596101354078    5.60198217641894
H        -4.12982348239296   14.42831501137295    5.49357425021977
H        -4.84227570883739   12.91492093811496    6.03236219676266
C        -5.41794429762324   15.03560903623233   10.61901076900497
H        -6.39093056305447   14.78828355404112   10.20504451398974
H        -5.38835625062209   16.11065549196207   10.79686659542877
H        -5.31087996029693   14.53365278135693   11.57983071035987

