57
CSD_code = QIGBOX | q = 0 | S = 0 | Stoichiometry = C20H28N4NiO4 | MND = 6
Ni        8.39028704671884    3.19108484761542    9.56257132125290
O         9.24183462922605    1.76845032927315   10.35865586517002
O        10.00975670689642    4.48660558397386    7.39705804818084
O         7.55144547529331    4.57099501275518    8.67939464176817
O         7.22368989509935    0.49610869057118    8.92822128693461
N        10.08477368705075    3.49175676989325    8.36627427091822
N         7.03246944580174    1.85162263585313    8.67999003620927
N         9.36236051627108    4.84100793305282   11.04759036240319
N         6.86794459781279    3.22471649806109   11.44154974366747
C        10.45086424524848    1.32096588059734   10.26421385325557
C        10.82979040307339    0.27302193591072   11.13796865261546
C        12.08075637741276   -0.28750339825315   11.10418104945920
C        13.03305265960470    0.16107150184242   10.19155259223203
C        12.70022925098384    1.17099454564034    9.32226009555352
C        11.43348357156318    1.76931590372730    9.33246816046494
C        11.17016837429270    2.81759806973502    8.39151602804221
C         6.47568048990937    4.61411108917892    7.96368472927797
C         6.02516589394328    5.88766325295033    7.53887294225626
C         4.90788407402079    6.04299163199610    6.75929094488861
C         4.17054260221900    4.93394075837688    6.35031985994056
C         4.58107795736312    3.68111098705395    6.73533921993019
C         5.71485230475154    3.48627078033171    7.53500062968026
C         6.07200194024358    2.14433529217112    7.88957823627396
C         8.30975817715661    5.16533356698574   12.01058651845664
C         7.58016023137298    3.92203518400803   12.51275902539220
C        10.54557454577104    4.33916490208630   11.73921022683721
C         9.73202412953539    6.05594117309829   10.32543752309907
C         5.61888847391814    3.91344843181721   11.13187163035964
C         6.54789303505019    1.87175120217750   11.89051212812190
H        10.08831397479197   -0.07827394966703   11.84193487394582
H         9.12847005905917    4.88311529772069    7.55318329765885
H        12.32725786900876   -1.08404369009830   11.79157375185401
H         7.97738957454663    0.48834812006187    9.55233290356012
H        14.01623220187448   -0.28261347634826   10.16753507405327
H        13.42852993679091    1.52599682367656    8.60603727669855
H        11.95285703002537    3.05107060498270    7.66904660700770
H         6.60119763245235    6.74718468293765    7.85229447205279
H         4.59913969141886    7.03458773239907    6.46064413064169
H         3.29197452645478    5.05965282828813    5.73685232498218
H         4.02036413804058    2.81136909806818    6.42133195962473
H         5.47538758132396    1.33757754433485    7.46259036433475
H         8.72807600446240    5.70715685656646   12.87650152917388
H         7.59321979956349    5.82267801070932   11.51558258045749
H         8.30842877403968    3.22968388225792   12.93789286884161
H         6.88234858227684    4.21792189072202   13.31504148614409
H        10.92617639450083    5.07772271154494   12.46172905179146
H        10.31917204687924    3.41710050188695   12.26761137952346
H        11.32898726953481    4.12436528662131   11.01523721361215
H         8.87957336377938    6.41069611870969    9.75037173874613
H        10.55009423719806    5.84372248354191    9.64083157635103
H        10.05473570602304    6.84833921665728   11.01718511215500
H         5.08851356206858    3.37535568068356   10.34886551146136
H         5.81459685400255    4.91932609908348   10.77048517183224
H         4.96961225484220    3.97539340213762   12.01893419098930
H         7.46846388409313    1.31945652979381   12.06573183519469
H         5.95606386438542    1.88915310272084   12.81780088418157
H         5.97231244896255    1.35564561752137   11.12551121048942

