86
CSD_code = QIGBUF | q = 0 | S = 0 | Stoichiometry = C36H41CuF3N5 | MND = 3
Cu        1.72748314136496   13.44163202946718   16.19935162013640
N         0.01641223375338   13.35348512329921   17.33725086656647
N         1.87774364050611   15.19305251008235   17.00255165583715
C         0.85555413665161   15.48852510617906   17.84328463884029
N         3.88995075749883   11.79308776702426   15.10366535406730
N         2.44790922883916   12.28536852682253   13.59948213496215
C         2.70565983771669   12.41580838841585   14.91893663536964
C         4.36358725851753   11.28381936789827   13.92280061486867
H         5.28979374089900   10.75099066801245   13.86414245148666
C         3.45401871347853   11.59600684310070   12.97179033064202
H         3.44031713050920   11.40104285033854   11.91906308098365
C         1.32364155608300   12.84454101560832   12.93416429986802
C         1.47763499318463   14.06360440987876   12.27098046409220
C         0.37253979501961   14.58806886935369   11.61288088801445
H         0.45244727816900   15.53529879458914   11.10430366375699
C        -0.83068682815694   13.91107040166468   11.60178374287315
H        -1.67664037442537   14.32727384484460   11.07492028797971
C        -0.96373969816061   12.70729803919699   12.26914797146816
H        -1.91379290776501   12.19871080398638   12.25159270040751
C         0.10598636678734   12.15883578614200   12.96142280672158
C         2.78466001044521   14.81965243874403   12.31165388481951
H         3.58676587271355   14.13399198897820   12.60108065183993
C         2.69671332444991   15.91781565894026   13.37555159263412
H         1.88602428360284   16.60544829647080   13.14690773255862
H         3.62609334063106   16.47977598530625   13.41441229923594
H         2.51880276666564   15.48848194745893   14.35915154439454
C         3.15775084051534   15.40962016861997   10.95041476235227
H         2.49920459595281   16.23042198056476   10.68060819157934
H         3.10413461995571   14.65066930142638   10.17203440050297
H         4.17357245000922   15.79631554704391   10.98637138544295
C        -0.01268131969976   10.85081168765822   13.71152448003415
H         0.63457169286981   10.91526704606641   14.59424232563081
C        -1.43463595797842   10.56908182710349   14.19572094576907
H        -2.08401362031030   10.29202356410456   13.36864986769297
H        -1.85178694340368   11.44152707363096   14.69308328263043
H        -1.42438709585338    9.73888713972386   14.89936733070024
C         0.47258420850794    9.69530839532158   12.82899067695168
H        -0.12199973447255    9.64322349247267   11.91915740174461
H         0.37414660158836    8.75117335555909   13.36038547187184
H         1.51558615817409    9.82389744089337   12.55069430709579
C         4.58603486663028   11.74263963978568   16.34169466304900
C         5.56008487482019   12.70810117450917   16.60537031234583
C         6.22379339070728   12.64228759081194   17.82341070373630
H         6.98225614803339   13.37268876014667   18.05663453803411
C         5.92069119243438   11.65948993935547   18.74534764889257
H         6.44127757902058   11.63016019425701   19.69111563538879
C         4.95403529992806   10.71302179338924   18.46360618060654
H         4.72610858202891    9.95244723862952   19.19409582462090
C         4.27414014335219   10.73350146832222   17.25393498151685
C         5.91758974210573   13.77444983594847   15.59805859289656
H         5.23117860030766   13.71303087479786   14.74896420974767
C         5.78141638690110   15.17734045298609   16.18926512325888
H         4.75856782133943   15.36233810658114   16.51006418349317
H         6.03655753680779   15.91752609585825   15.43457521582354
H         6.44503932961586   15.31760612012685   17.03777911471670
C         7.33942744881892   13.53507594665658   15.07855313076768
H         8.06430161408821   13.63170082258192   15.88285250667349
H         7.58254091953108   14.26410358808183   14.30906695527228
H         7.43391754097841   12.53782897210098   14.65165120300859
C         3.20771670715498    9.70706100273617   16.95141917230124
H         2.90727699132859    9.80442302832774   15.90331660530932
C         1.97858143904557    9.98352662576670   17.81961340016713
H         2.21812237802466    9.86502199641612   18.87343620293764
H         1.17429454521305    9.29508653003912   17.56819010105412
H         1.63720399809096   11.00446412261622   17.65700898320742
C         3.71858816336923    8.27992205630204   17.15593316192497
H         4.62300014005783    8.11166974631211   16.57508770184613
H         2.96364065577291    7.56601679821917   16.83357966614205
H         3.94144080579874    8.08667450874143   18.20155964111822
C        -0.88741377203649   12.39020515623671   17.43349148212225
H        -0.68365490035772   11.48856232280371   16.87368923741581
C        -2.03134865285098   12.50409455765567   18.20130111980790
H        -2.73957930485642   11.69245102662148   18.24846352181512
C        -2.24014880484620   13.68394168852219   18.90726793552684
H        -3.12199129570538   13.80779297955958   19.51872247712069
C        -1.30461427411644   14.69206064663220   18.81453539672973
H        -1.42772261558934   15.62255449880203   19.34487448378135
C        -0.17446504565390   14.50197160634403   18.01354237097668
C         1.07584988740747   16.76267851072323   18.37026907104483
H         0.48409214778006   17.32275967498721   19.06416935500557
C         2.27458203821107   17.14602594580062   17.77359371884925
N         2.73044305660251   16.18284725169237   16.95651263751333
C         3.02117693049595   18.41210117787312   17.95201603525109
F         4.24054633393173   18.24210528986166   18.50551248848471
F         3.23658976191416   19.07634631498767   16.79882648059631
F         2.37080757354273   19.27508083849843   18.75830808368385

