99
CSD_code = QIGBAL | q = 1 | S = 0 | Stoichiometry = C38H56CuN4(1+) | MND = 2
Cu       16.91479403232857    6.93104667580627   10.25801300065451
C        15.32661908947911    6.68655897703135    9.03574656004511
N        15.35459773371915    6.83753027549011    7.68930679253102
C        14.11127423368024    6.62656995902898    7.17013879858856
H        13.87697768392418    6.68842370942216    6.13056304443442
C        13.28993025083810    6.33916421485247    8.20662099830230
H        12.24589510085038    6.11777186566685    8.18770898375916
N        14.04426453614823    6.37794676421670    9.34238955107962
C        16.55175124361270    7.16483462730897    6.90355211466728
C        17.10509598660204    8.50820460090120    7.38339284658082
H        16.36175889337930    9.29208387149947    7.25441774551342
H        17.99151065770232    8.76874864293504    6.81269422519537
H        17.38083085079470    8.45249705561055    8.43396820081252
C        17.58199887180691    6.05131144706069    7.10341447551037
H        17.17860714878629    5.09789669727547    6.76845357121885
H        17.85332677296800    5.96962039563566    8.15335229444522
H        18.47945550830347    6.27271245429724    6.53323244671699
C        16.21232363093183    7.27025175019254    5.41728895624464
H        15.48626567701915    8.05782538104145    5.23072578831572
H        15.83584238578309    6.32794571195999    5.02687219036573
H        17.11853003402017    7.51730789004240    4.87122258820246
C        13.53473643631622    6.12988812133225   10.69794918751185
C        12.04915489694469    5.77368974652821   10.66060292329561
H        11.45362305735008    6.59074601982662   10.26071573885930
H        11.71136976854593    5.58396836454388   11.67570676982303
H        11.87122639770984    4.87329503755752   10.07748898277437
C        13.72712842777593    7.39946667361109   11.52934858873687
H        14.78278873106905    7.64062686064618   11.61352836993399
H        13.33050206705398    7.25016336792508   12.52901322135760
H        13.20894496525018    8.23800317043915   11.06909141212751
C        14.31298168158304    4.96393837836154   11.30950837878925
H        15.36440822862838    5.21804115190513   11.40504593297407
H        14.21928965505720    4.07542093281811   10.68926913865911
H        13.92566729805037    4.74114091243243   12.29903046109444
C        18.51696647057447    7.24157466687346   11.42314019692907
N        18.53991632103697    7.20384343083507   12.77199500291382
C        19.78149353931914    7.51699576336084   13.24868747067010
H        20.00285555666343    7.53806093707013   14.29544191143607
C        20.56039482072572    7.75976632091260   12.16715616626603
H        21.58885335430671    8.04597453547402   12.09565942891745
N        19.77242148426969    7.58401904822011   11.06424817844371
C        17.40702009903127    6.87274425666113   13.56672687308545
C        16.58260666168159    7.90384182429180   14.02405138301812
C        15.42069161361066    7.54790669592959   14.69509302615970
H        14.75095166052989    8.31448851768784   15.04897153143604
C        15.11312720511361    6.21838890627778   14.91887429793807
H        14.20110040055819    5.96039589006988   15.43572871541731
C        15.97888382240802    5.21923285586022   14.51637786573825
H        15.74185738169836    4.18996994238776   14.73262856441001
C        17.15248787210155    5.52773087848223   13.84093261170263
C        16.95852248026662    9.35331380728586   13.80807820070716
H        18.03317423454744    9.40780120485050   13.60262680358899
C        16.22061204058541    9.93763814409594   12.60032772803688
H        16.50367894914385   10.97818894865944   12.46174807111610
H        15.14522537454582    9.89043207825783   12.75182310089354
H        16.46973760373616    9.39016117644041   11.69151007533163
C        16.69182058167265   10.19878952879931   15.05450965708962
H        17.14705531011381   11.17906501943878   14.93647308896068
H        17.11615000485494    9.72642319682578   15.93735562232443
H        15.62740793023371   10.34304208003838   15.21536382217154
C        18.13589643292276    4.44641439488430   13.45259793887160
H        19.07125131932926    4.91546054673477   13.12926005801674
C        17.60876423330676    3.60362572857458   12.28914362804678
H        18.31478903622389    2.80947454246703   12.05905414115429
H        17.47856885032843    4.21529697036640   11.39728266167366
H        16.65340505168487    3.15171690121325   12.54230448556633
C        18.46471926194304    3.55650152735205   14.65361980689756
H        18.75971911095631    4.16036560276516   15.50872300530324
H        19.28589703774873    2.88916865866879   14.40389245357820
H        17.61182121849792    2.94805260991071   14.93952582607797
C        20.23283973681105    7.73458176415894    9.72475506329466
C        20.62811606967610    6.59372364826061    9.01774236196802
C        21.08951481642822    6.76734665436343    7.72060536965197
H        21.41568618001211    5.91445011117155    7.14887954821889
C        21.14931342381836    8.02714646806107    7.15264025838604
H        21.51410196400250    8.14184141918036    6.14312651871449
C        20.76486156236563    9.14043105538592    7.87389112090167
H        20.83947878542764   10.11715813875968    7.42352576527590
C        20.30036418373803    9.01718326681907    9.17747231921410
C        20.61797133259508    5.23418309235416    9.68115897313982
H        19.79889437817585    5.20740066179806   10.40948655885546
C        20.40438719262662    4.07782914330096    8.70497038415500
H        20.22871528760877    3.16192140520402    9.26425620794723
H        21.28213236876724    3.92137135467189    8.08422004509767
H        19.54664640353948    4.25634753671263    8.06245943592219
C        21.94156151093895    5.02994741169221   10.42882091626024
H        22.08271135655099    5.78075709888902   11.20240767826703
H        22.77629152110429    5.09236863122674    9.73453724725325
H        21.95615680940370    4.04902634327391   10.89756229306754
C        19.95278363126029   10.24385171200291    9.98971873133240
H        19.45891099861364    9.93547399664067   10.91719189643080
C        18.99598900350906   11.18427938029869    9.25616812662554
H        18.07693813659231   10.67021713478320    8.98704218337157
H        19.44703420748674   11.58292685235072    8.35253821033220
H        18.74430972687503   12.02183086604762    9.90218684033676
C        21.24333553165875   10.98406454811706   10.35705223398157
H        21.01683133719587   11.84290948358018   10.98385890091814
H        21.74838305211312   11.33567564726613    9.46131073359717
H        21.92632323090227   10.33334633040617   10.89850639851357

