85
CSD_code = QIGCAM | q = 0 | S = 0 | Stoichiometry = C35H40CuF3N6 | MND = 3
C         4.04175100372139    1.88628854357906    4.36208195132732
C         3.35646842076645    2.76792761478743    6.30394760860655
H         3.39808164331358    2.98889136771045    7.35078136017136
C         2.43107224583075    3.07530080290004    5.36644211621011
H         1.51754400955883    3.62868335294557    5.43322872906209
C         2.14260287898361    2.56739219523745    2.96597225768513
C         1.16422276955476    1.59880698804238    2.73242684586760
C         0.46674746404429    1.66003641033447    1.53302130569551
H        -0.29886380112857    0.92976939489350    1.32411123172478
C         0.74438544070080    2.63939657752904    0.59947689309987
H         0.19710646055115    2.66567046913198   -0.33119502093516
C         1.71884636722850    3.58694290347624    0.85001249641782
H         1.92708081317658    4.34325873159042    0.10958933567849
C         2.42979080532956    3.57315125708174    2.04170126054621
C         0.83708650370645    0.53677187273256    3.75477412106814
H         1.56159804395434    0.58873174067081    4.57230246803402
C        -0.55690119010636    0.79668206556710    4.33588108213171
H        -0.61570974710398    1.79191598343419    4.77351149126241
H        -0.78013509946742    0.06596204950439    5.10969879095090
H        -1.31614230912923    0.71893677756945    3.56186023698939
C         0.92654928544636   -0.86876675042494    3.16093903086260
H         0.22038753600699   -1.00296594070552    2.34680699581734
H         0.70019818484992   -1.60446383810538    3.92878368113793
H         1.92909134364054   -1.06816632365118    2.79133978817613
C         3.50932593456221    4.59473250169537    2.31335334995234
H         3.78966563137282    4.54210971266754    3.37041654387264
C         3.03652346488310    6.02169257928624    2.03217996573536
H         3.79204769131802    6.73282550069470    2.35927263978501
H         2.11227412917643    6.22995403577328    2.56678460487222
H         2.86359254898255    6.17914244519155    0.97129163597734
C         4.74623087980304    4.24990560462189    1.48071460780406
H         5.06670510257053    3.23269637270310    1.70283535326256
H         5.55884636978363    4.93757677625687    1.70648136575673
H         4.52208831889680    4.31494843907540    0.41865181646681
C         5.46367348994466    1.48124344471282    6.32400347916386
C         5.30476334603367    0.28322139652194    7.02358663682888
C         6.41614537635261   -0.24308772362519    7.66951364256485
H         6.33220014550891   -1.17441797213176    8.20585248489340
C         7.63064924889304    0.41273303619604    7.63375589301254
H         8.48167867177647   -0.00394440620139    8.15187711057781
C         7.76794929936846    1.59597532699706    6.93146111315026
H         8.72666029860638    2.08795581874471    6.91331234784872
C         6.69147193779677    2.14504752322964    6.25003494765518
C         3.98407777221479   -0.45012466616996    7.03190858935159
H         3.18502237022461    0.24775079488974    6.76295748873527
C         4.02042101670184   -1.55767491818372    5.97445189430415
H         4.17813789706029   -1.13876713009316    4.98266978131878
H         3.08032648920475   -2.10305283014284    5.96757531045345
H         4.82508727404171   -2.25824953689468    6.18459899029431
C         3.64371866824832   -1.02466212668061    8.40812359168530
H         4.29218319541923   -1.85887306499108    8.66052104241508
H         2.61897703978938   -1.38882910990913    8.40810497084581
H         3.73987804971045   -0.26316956544736    9.17972372452796
C         6.81443054997117    3.43123653966417    5.46355730142268
H         6.14444057954062    3.35696176405286    4.59872811232983
C         6.37248548325085    4.61748510141004    6.32804293896554
H         5.33358134223064    4.51763002307426    6.63214682707137
H         6.47831753537284    5.54614343986379    5.77148266951579
H         6.98822159451283    4.67915858233250    7.22308318979216
C         8.22881783872846    3.67407183878431    4.93806481841148
H         8.90471070524131    3.95354480750416    5.74269529754335
H         8.21721419529442    4.49073225594770    4.21876691768572
H         8.61516301835556    2.78345660314144    4.44802109014744
C         7.61422964840508    1.79139880195472    1.76627137878585
H         7.43531659424970    2.72485487753893    2.28037615578370
C         8.74982878210177    1.60996784078437    0.99744065196330
H         9.47579630636244    2.40250649521632    0.90803750593097
C         8.92972582274710    0.39392363610789    0.34782148324371
H         9.80516876796059    0.22147961235544   -0.26069212284377
C         7.97078207087697   -0.58756807640709    0.49370319564195
H         8.04640455693721   -1.55094375928496    0.01661440551688
C         6.85881811535346   -0.32307102752798    1.29216732183646
C         5.80925925358361   -1.28043877551052    1.51454073969815
C         4.52191565098294   -2.90282217904750    1.57071167195116
C         3.90552476752169   -4.23243396579867    1.34404436078036
Cu        4.97842094159188    0.81686200049739    3.08022577279045
F         2.63269302863590   -4.14543633653017    0.90918999958908
F         3.85474432240035   -4.97626249656327    2.46895446444852
F         4.56259681532048   -4.96810185292629    0.43904859839138
N         4.33308938978740    2.04286236658861    5.67082197271156
N         2.86685868890609    2.52758549072955    4.18857468908990
N         6.68956915322892    0.85432865526668    1.91700152800758
N         4.79011938551372   -0.95799684767230    2.33037116135387
N         3.96732880059167   -1.99092148641915    2.36823302114090
N         5.67314556282385   -2.51240643381494    1.01364190056397

