61
CSD_code = QIGCOA | q = 0 | S = 0 | Stoichiometry = C18H38Cl2P2Pd | MND = 4
Pd        8.34832523146055    0.42421150335836   14.07730344509489
Cl        7.52010979107360    2.55610384593868   13.85572730487784
Cl        9.20037682974696   -1.67059310937797   14.30234668959609
P         7.55707513534878   -0.13572599289753   12.02047517082362
P         9.16178544978208    0.98952147752609   16.12679171654946
C         5.69230833423337   -0.15860029423797   12.06064365343158
H         5.32723693187066   -0.91883148880623   11.35958213096777
C         5.34366748977423   -0.57275790432341   13.49432090771571
H         5.65417580545334    0.22412502975505   14.18429514233176
H         5.86042201894856   -1.49797203491881   13.76753566045971
H         4.27149104858685   -0.72696028029537   13.60887369801296
C         5.06536597247302    1.18779208567056   11.71602505498304
H         4.00256474348790    1.16967059449767   11.95313200376668
H         5.16951616200180    1.41329046410366   10.65676160715457
H         5.53235828787557    1.98315457911946   12.29456167717985
C         8.00739570516185   -1.70840760128494   11.14914115266162
H         9.09185818242731   -1.81463380310316   11.28997187594887
C         7.72087617942293   -1.38018266030144    9.68456019092779
H         8.10951442906438   -2.15725370535552    9.02399301451384
H         6.64211257229504   -1.31308790348536    9.52328508198697
C         8.37825619785877   -0.03247534603821    9.39916555677661
H         7.99243673701623    0.40507610906170    8.47769590049806
H         9.45210577606498   -0.18395242657708    9.27133880915649
C         8.14318361082998    0.90898437626003   10.59599286923401
H         7.39195405469336    1.66755520148254   10.36458541674956
C         7.33682358888386   -2.97698026570133   11.65265765594067
H         6.25543287830577   -2.93380388126066   11.54134674146100
H         7.58196207333621   -3.13507040175949   12.70072367867521
H         7.70081131283166   -3.83330393612580   11.08679968229788
C         9.43092880063692    1.60762868523552   11.03924775677946
H        10.13988115094327    0.87233600213457   11.43607411006506
H         9.20862664195647    2.34158634750591   11.81549170454378
H         9.89957236755606    2.12546971620083   10.20367917595955
C        10.27264251270598    2.45741429612820   15.83964607129125
H         9.56179663045445    3.21828689175435   15.48323323821249
C        11.20931341107636    2.10514662561190   14.67953954532217
H        11.64984788876309    3.00630499153306   14.25578542825835
H        10.64644375814261    1.58719203033619   13.88316200253134
H        12.01344105731134    1.45079106344542   15.00993239771012
C        11.02725422914989    3.02924080723055   17.03303001805788
H        11.79284715886541    2.34460556697470   17.38945011522485
H        10.35205498770864    3.26181385680318   17.85380489278546
H        11.52102709535355    3.95337471310843   16.73432592449672
C         9.96992122362497   -0.26483076855388   17.22989982530286
H         9.35810062349637   -1.16642593985696   17.07738709801884
C         9.72752696856966    0.24818615515650   18.64782208883083
H         9.92464691871391   -0.53563906392469   19.38188141799510
H        10.38835824214706    1.08686403567529   18.86832218774488
C         8.26835922769055    0.69075495808627   18.69902047790663
H         7.63320866921654   -0.19784408253585   18.71625398283807
H         8.05842959143855    1.26944979593322   19.59974517031362
C         7.94450854574197    1.50841450604242   17.43693795061249
H         8.06890892314085    2.58024617415437   17.62379462793346
C        11.41039617921176   -0.62698137473745   16.90479582966159
H        12.08631029890437    0.20611512637791   17.08102533621215
H        11.48565440654425   -0.93775139931907   15.86422555023288
H        11.73018052204859   -1.45932146817838   17.53024323826230
C         6.52509326085045    1.24478281659151   16.93502041266005
H         6.44674108979807    0.21259302572826   16.57365331097697
H         6.28363398398907    1.92420114185886   16.11785325048364
H         5.79714110399500    1.39170253667500   17.73168237299415

