49
CSD_code = QIGDAN | q = 0 | S = 0 | Stoichiometry = C14H30Cl2P2Pd | MND = 4
Pd        3.18985200825211    4.01316173832789    2.97785805104887
Cl        4.73660223095218    3.65204615688426    4.60325985204033
Cl        4.81153267610059    4.99746076351926    1.72748900972883
P         1.91137455311842    2.57492228353599    4.21083047096757
P         1.77536403514693    4.93610087163665    1.43753091156485
C         2.59112798020156    0.90843233297330    3.71431787364560
H         1.73919211537995    0.25947051824133    3.46913976586133
C         3.28307100076786    0.38752021396904    4.97734603246336
H         3.44107974630256   -0.69067460199800    4.92579099018291
H         4.25074213266219    0.88096835202485    5.08454544707941
C         2.39413182174772    0.77673202288830    6.15327049006796
H         2.86571659023360    0.53906723001513    7.10723144383692
H         1.44534762879624    0.23475597134654    6.10067902228886
C         2.15087939360591    2.28454016186241    6.03384236820447
H         3.07936699916057    2.80698487621746    6.28868791891428
C         3.50944236981812    1.00974702417230    2.49703828895986
H         4.38507047245002    1.63167189170415    2.72837003781620
H         2.97022898669329    1.44903540886057    1.64587670604145
H         3.86615661505092    0.02306278674390    2.20399606218882
C         1.02982275444293    2.81328689277616    6.91719160126682
H         0.09693447374150    2.27971039905399    6.74742509450220
H         0.86580092446488    3.87364702119522    6.73161181100569
H         1.30100001782503    2.69148414605424    7.96429428285757
C         0.10688615756502    2.28684948300394    3.97486584950368
H        -0.20791779945233    1.41142541385338    4.54031013897507
H        -0.08704624370003    2.11784453359792    2.91738109148112
H        -0.46038848341032    3.15400543364471    4.30817578156481
C         1.64662498265917    6.70150031374820    2.03337572927642
H         0.58144871843637    6.96937002762385    2.05859786920926
C         2.35438428550828    7.52105947688876    0.95054419311927
H         2.07915886366775    8.57517739285261    1.00903595737046
H         3.43434382338635    7.43091279503517    1.08254178949399
C         1.96404118855450    6.90428650958812   -0.38786545333980
H         2.51074359331914    7.36071287514184   -1.21348624745190
H         0.89494693999180    7.04871999872778   -0.56937241715606
C         2.28829754537683    5.41037986691575   -0.28819016629626
H         3.37683201678472    5.28950145825421   -0.30791947009567
C         2.24046477495089    6.87640863150283    3.43068847839798
H         3.31321901644410    6.63761337924269    3.42362535403204
H         1.72986234849886    6.22020031352446    4.14936115714773
H         2.12800728019743    7.90630869220197    3.76751470775520
C         1.67732434453827    4.55882607043787   -1.39203190717622
H         0.60152459007121    4.70387387038020   -1.46455973109588
H         1.87749837963083    3.50347980803283   -1.21471484151671
H         2.11826890022158    4.82984175190220   -2.34922145988616
C        -0.00704467304976    4.51284957574199    1.24146308334366
H        -0.49306917592587    5.23794539944829    0.59101013015919
H        -0.48467178115760    4.53364212360517    2.21904266803679
H        -0.11217712002205    3.51743034317117    0.81360418258435

