21
CSD_code = QIGLEX | q = 0 | S = 0 | Stoichiometry = C7H6Cl2CuN3OS | MND = 4
Cu        0.71781891547780    0.89420631234763    4.89023215907095
Cl        4.78319509503047    4.27574877400811    2.72050667041750
Cl        0.23088221220095    1.33829476916996    6.83291037524939
S         4.46084028340699    3.50362969859476    0.85452574458686
O         1.66453464570778   -0.13603403158779    0.27577009640753
N         3.23562315182673    2.45102172854689    0.97579004377464
N         1.57835852162940    1.53680639706570    2.45489196499492
N         1.17072191553496    0.46563588318667    3.14631446280566
C         2.49555443652336    1.88850533300120    1.74803407547238
C         0.96965284463714   -0.68220708887058    2.55241099278497
C         1.19132970156576   -1.02248072306411    1.19454395327984
C         0.98954318276050   -2.24688266733431    0.57505650054649
C         1.36067436907759   -2.07937647785355   -0.76620185590166
C         1.76586449585535   -0.77278450496313   -0.89950473001987
C         2.25446721607196   -0.00453794169246   -2.06948141311775
H         2.86755365524245    0.82675358334605   -1.72942376192977
H         2.83142762817420   -0.64690126351849   -2.72901202961795
H         1.41401777289584    0.39949635658012   -2.63444851784523
H         1.33691778076429   -2.81926831935104   -1.53934719666435
H         0.62242190507998   -3.13772208434607    1.04167768784017
H         0.58180027053078   -1.47280373326475    3.17705477785121

