58
CSD_code = QIGLID | q = 0 | S = 0 | Stoichiometry = C26H29OPTi | MND = 13
Ti        2.33583923286664    3.69134252821503    2.49992964802383
P         1.06475459933693    2.06461765803130    4.18565963123649
O         3.51401746228242    2.41029673554425    2.93171856809453
C         1.19000017051168    4.45428046121288    0.62061057448646
H         0.92692441147682    5.47954253493630    0.40371117484793
C         0.35408746748190    3.49829946631265    1.21677559077237
H        -0.64834868982514    3.67656585522401    1.58532154244950
C         0.97325646116199    2.23230530198171    1.07551288423230
H         0.52376667868026    1.27621308658766    1.31013052749019
C         2.19085493834503    2.41227417014198    0.41147502675239
H         2.86709981501484    1.62801930238528    0.09756408356101
C         2.35186085633097    3.79287196480885    0.15860648080647
H         3.11555174906803    4.23232282249452   -0.47091060328559
C         2.78923948742225    5.95983023835221    3.16796449377765
H         3.84249220563515    6.21209202588501    3.12655761160644
C         1.76968699724394    6.66059071291425    2.51786629733116
H         1.91113103747288    7.40498558093402    1.74915478818781
C         0.53831693149026    6.26519487338747    3.05718008432309
H        -0.42830409806557    6.62913934900035    2.74847241987851
C         0.77561161436810    5.32525475234371    4.04964424614063
H         0.02451185442157    4.89571970892306    4.69993018451577
C         2.17914192346630    5.11803380030410    4.15300189728753
H         2.68470061753885    4.75012003308996    5.04210536086608
C         4.36923106130908    3.42132334749722    2.64447805626509
C         5.13160587294263    3.95362790100379    3.79241430627388
C         4.86334666047053    3.44827601038173    5.07275369708849
H         4.13178163029697    2.65254097039304    5.16094640957777
C         5.53225544426661    3.91328420655252    6.18548247525101
H         5.30463422878633    3.50463068662123    7.16073234289597
C         6.50105593475652    4.89633947520408    6.05677247967939
H         7.02101030795557    5.26857845778599    6.92667520169939
C         6.80908685414405    5.37891588947310    4.79547280444366
H         7.58167233518946    6.12594572613766    4.68067933097538
C         6.14472761277202    4.91305684220692    3.67733424231082
H         6.42725820001425    5.28941708111723    2.70604334738067
C         5.11893619509247    3.29131274735362    1.36410696103649
C         5.48821247132430    2.01992155144381    0.92167086538559
H         5.20448801038787    1.16329733885489    1.51930643465953
C         6.20482525953117    1.85746574685609   -0.24842221603556
H         6.48317074536416    0.86569132896339   -0.57596172983785
C         6.57688634879786    2.96261091709615   -0.99616315230591
H         7.14268669769334    2.83725295837537   -1.90757151504187
C         6.21326933201654    4.23031141592712   -0.57146139370670
H         6.49083815103403    5.09437777119496   -1.15887858782938
C         5.48734443699780    4.39704054093283    0.59389703899672
H         5.17054608788611    5.38980119040253    0.89205635863973
C         1.23972378453265    2.29185632689817    6.01180549517838
H         0.74864567798635    1.47174565335869    6.53624559922323
H         0.78806099975609    3.23468099151936    6.31455252926920
H         2.29305499783977    2.30950925476469    6.28409925272411
C         1.68597052414531    0.33610113201345    4.06990542425253
H         1.18027984615342   -0.30285555466219    4.79456128331159
H         2.75764497404399    0.34316769410444    4.25971262506344
H         1.52484508591389   -0.04745192837416    3.06440676282117
C        -0.75536810956272    1.74069379382563    4.14513508819017
H        -1.02430047427261    0.98554040872978    4.88301177773258
H        -1.05152393987424    1.39761615333387    3.15641131600067
H        -1.29139696938982    2.66196300971947    4.36530657510025

