59
CSD_code = QIGLOJ | q = 0 | S = 0 | Stoichiometry = C26H30NPTi | MND = 13
Ti       -0.85992008147703    9.31183180263941    7.47688547985052
P         0.91095911001030   11.18517654241993    7.63326264121517
N        -1.96975683153194    8.93607186370640    8.89265797157836
C        -1.27984486330148   10.23606921790726    5.26587573210107
H        -0.59865470041156   10.05279708816122    4.44491664009676
C        -1.46408574573541   11.46997457070697    5.90264769451627
H        -0.95424825760498   12.38997787779524    5.65598107756008
C        -2.57070099459481   11.36127812206630    6.76635093905061
H        -2.99871717644879   12.16629182124015    7.34782919022248
C        -3.08869073532584   10.06956956108220    6.65275759847665
H        -4.00794770236155    9.71326152268747    7.10034762900601
C        -2.28349669304058    9.35080767997830    5.73085804552693
H        -2.56256953839956    8.41385694094241    5.26326700629331
C         0.88272834618247    7.90099111770652    8.01985881381846
H         1.46758739884045    8.02681639320805    8.92342692335628
C        -0.25165458222483    7.06524151009398    7.88109876439417
H        -0.71767782524975    6.48152608908714    8.66539093610040
C        -0.56193981086898    6.98432656696218    6.51317136991954
H        -1.31576654090260    6.34350719564956    6.07554763497874
C         0.39641880221526    7.72351020725649    5.79824875689470
H         0.47532572819648    7.77675525250949    4.72160689718144
C         1.28469186200946    8.28751052103054    6.71669714330334
H         2.21175539404260    8.78662396881763    6.46783037226733
C        -1.39250171013801   10.09060701186446    9.39809305618273
H        -2.03072385276257   10.99328837331818    9.36421337791225
C         1.91418559052113   11.73600948919152    6.17840637597822
H         2.73232289004237   12.37189269414607    6.51774818127225
H         1.28865233926612   12.29498117044370    5.48641169993754
H         2.32414037290410   10.87760927487287    5.65057004259827
C         0.44060740999754   12.84130826543616    8.29009166261525
H         1.25218584745159   13.54970543311281    8.12029982883222
H         0.26478061707491   12.74783310701620    9.35863707714556
H        -0.46661700368755   13.20500893376263    7.81399963041015
C         2.30077840107006   10.85525892976095    8.80306526031989
H         2.90164964459504   11.75757609732704    8.92369720402997
H         2.93271165976356   10.05351110572865    8.42593259072501
H         1.89713995979083   10.56165011540999    9.77135767415979
C        -3.09738153101681    8.31814638033791    9.31641922076284
C        -3.72134362836829    8.67697806238600   10.52460671677124
H        -3.28524340179386    9.46484263567628   11.12294076115857
C        -4.86123982981251    8.02580295114712   10.94522739633952
H        -5.32551459259555    8.31692862007161   11.87708739363542
C        -5.41404370447506    7.00416962726613   10.18851660516717
H        -6.30626995527607    6.49771473445865   10.52442262850307
C        -4.80867703243950    6.63882604546578    8.99477956705025
H        -5.23552793000588    5.84452534059114    8.39811712507964
C        -3.66984908187544    7.28080164533183    8.55827032043211
H        -3.20282536492056    7.00136957740842    7.62171089418469
C        -0.57303193748857   10.01481873771859   10.60085179735766
C        -0.31111192467289   11.16032318760823   11.36726758117935
H        -0.77171749398505   12.09959364457182   11.08840814348962
C         0.48749460768811   11.10398007302347   12.49190125700512
H         0.67618512554769   12.00388535229487   13.06057468410715
C         1.03425043930891    9.89893756998266   12.90354049556855
H         1.66178116408869    9.85571258232372   13.78098498207766
C         0.73528855850196    8.74369809329100   12.19583242581801
H         1.12028643481804    7.79225406042416   12.53525224050921
C        -0.05870351155302    8.79535735283196   11.06889714979872
H        -0.31891213757317    7.88332029074577   10.54875169416830

