28
CSD_code = QIGMEA | q = 0 | S = 0 | Stoichiometry = C11H12Br2N2Pd | MND = 4
Pd        1.35978065396696    1.81202676927706    3.55948631052464
Br        2.82733223695383    1.14135756136948    5.37545831679480
Br       -0.02698308418636    2.31297602664167    1.63397978319737
N         0.91657734925240    3.69050078791709    4.50461181977624
N         1.13698903810338    5.48713237447507    5.74277022345209
C         1.74304205395370    0.14665575891847    2.72712686062727
C         0.79344472457025   -0.89258825322753    2.89065576697274
C         0.80749126585239   -2.18163142874572    2.42665572729012
C         1.76930962984560   -2.81754795160133    1.61593904720564
C         2.92554318835238   -2.29854754910741    1.10122682221788
C         3.45847111356373   -1.00497524595441    1.27240283652067
C         2.95010208899254    0.04443100054912    1.99179659602062
C         1.72933809558132    4.37311789626498    5.28287369553628
C        -0.25087970063847    4.39197420373458    4.45494514179651
C        -0.12402543758256    5.51196599918579    5.22136066184820
C         1.71701492849417    6.47380928280844    6.60829903209988
H        -0.08278707658909   -0.61337233770842    3.48659104525694
H        -0.03786177232351   -2.80003215958965    2.70413594604474
H         1.55108252861358   -3.84869070996753    1.36731402500439
H         3.52117420658995   -2.96315913756904    0.48782989137394
H         4.40369123242097   -0.82985727843636    0.77247139604180
H         3.56100021155580    0.95387692410445    1.99871472379130
H         2.73168202335885    4.08324236596898    5.54215640417901
H        -1.08895365874829    4.05814245645881    3.87178718961948
H        -0.81414691854577    6.30208807601731    5.43225897946724
H         2.68649798829873    6.12219589466745    6.95651309533148
H         1.06968809558679    6.64570106983084    7.46966786256401
H         1.84978499470706    7.41820760371750    6.07567079944511

