88
CSD_code = QIGPOO | q = 0 | S = 0 | Stoichiometry = C31H53N2OTa | MND = 5
Ta        6.48699529716135   12.28040435935128    7.43726997114916
O         6.42946382332890   12.08738123564147    9.32881348731540
C         6.25503842945975   11.18341170358178   10.34084716995588
C         6.11832428497189    9.75154994046059    9.74038122446529
N         7.33536684014908    9.30800732348214    9.11620091584048
C         7.96016370345261    9.96579973709609    8.11597743837699
N         9.04883755884522    9.21145402406040    7.84871553372382
C         9.10825735136274    8.11102334394991    8.66840027681437
C         8.02413818581849    8.17653467395716    9.47533528817419
H         7.69299307447833    7.52153180009021   10.25539560511166
H         9.90490020214065    7.39762316966930    8.61433022528140
C        10.01611306165683    9.50965551552223    6.85612225847386
C        10.93883550619026   10.52628899683886    7.09705521808620
C        11.87976525138789   10.81283224154428    6.12124482315260
C        11.92172047994411   10.10519165569244    4.92852036302944
C        12.92577730674374   10.44256540079195    3.86954270023460
H        13.29185420116879    9.54209017924519    3.38070571001228
H        13.76866566741599   10.98525023321888    4.28999127357471
H        12.46093594857576   11.07141999428540    3.10995990155398
C        11.00036910436267    9.08842913943709    4.72134919634837
C        10.03821791698035    8.77730025643388    5.67032737651658
C         9.04334112239080    7.68190314195390    5.42757169102758
H         9.03414775034055    7.40079974489538    4.37752415898434
H         9.29130837244428    6.79714851185467    6.01512959511464
H         8.04258401119842    8.00297022136385    5.71309135958530
H        11.02567842228276    8.53103263955450    3.79579375248298
H        12.59493689439109   11.60353563167841    6.29589289236180
C        10.90159301739628   11.26946077632485    8.39583107315568
H        11.66595089566095   12.04082341425844    8.42404636476337
H        11.06619884703001   10.58696028116819    9.23100134124927
H         9.92207072750695   11.73137550798846    8.52268483494891
H         5.84824309608299    9.04076871777630   10.52551485569991
H         5.31440594840158    9.77966807026200    8.99408257484914
C         7.44930742465907   11.22650465008206   11.31322762981734
H         7.32573674007336   10.49827904858505   12.11167473868833
H         7.52282217298367   12.22169721407500   11.74411671103378
H         8.37310891686548   11.02185023404724   10.77615689357503
C         4.95647791350806   11.49971777083505   11.10861974636502
H         4.80680073924085   10.80226076268288   11.92927085556618
H         5.01637741839709   12.51031597884224   11.50503117126942
H         4.10547631121714   11.44640404881154   10.43241565861273
C         7.61268609396113   13.86872635530180    6.83210599632756
C         8.52300690784024   14.82200572282077    7.55974008566958
C         8.05631459427243   16.27844616605640    7.38090072809823
H         8.77248209928145   16.96262114320076    7.83370688681036
H         7.08999500642628   16.42683866184573    7.85422991789409
H         7.96602939864594   16.52539757296697    6.32544884957517
C         8.58972133123648   14.51785074157437    9.05928865066015
H         9.25491151202113   15.21943483216259    9.56095499890545
H         7.60055989335390   14.59504217265178    9.50484224619088
H         8.95485350535783   13.50760942891897    9.22830551899192
C         9.93656583309028   14.69715126886627    6.95683454667442
H        10.65135446952027   15.29226756280396    7.52302890231694
H        10.25458866147195   13.65823182803380    6.96237873797622
H         9.93795573724062   15.04654134235358    5.92669414640138
H         7.64480777397569   14.11280470053632    5.76486844329582
C         4.29431421425708   13.07338825163047    7.24349765380889
C         3.88714067122447   14.51921146454677    7.50326308898702
C         2.35389265853071   14.63052716091532    7.45436065400116
H         2.04145304826611   15.66007026865178    7.62100249155966
H         1.89494806334971   14.00747278518589    8.22017136731600
H         1.97714637046165   14.31268492324982    6.48407518893678
C         4.47734458381954   15.43219757499074    6.42782619024930
H         4.23796560616804   16.47392157770290    6.63248831304705
H         5.55661815169140   15.31105316795530    6.40100988980059
H         4.07610707289424   15.17391303054665    5.45018830269455
C         4.36611856621406   14.96535504749401    8.88569291185315
H         4.09460658609496   16.00322597858809    9.07238104978843
H         3.91455905121786   14.34929894805979    9.66126314550812
H         5.44654197502401   14.86249703888684    8.95141853925636
H         3.75885123721116   12.43637074336655    7.95954891263198
H         3.93452559107554   12.79736373345361    6.24820967111998
C         6.13082928812358   10.85881461767544    5.63721947957771
C         6.48327294653053   11.19835843325795    4.18315020003219
C         6.07914695347702   10.02912340942239    3.26922018541839
H         6.32923663300061   10.24802604006485    2.23220531919691
H         5.00772915760775    9.84525690941447    3.32904985499903
H         6.59885978551380    9.11778811033669    3.55932318321497
C         5.72962990098680   12.45065179416291    3.72462988112187
H         5.98170602546722   12.69063146197080    2.69274391271243
H         5.98320994107053   13.30021854453288    4.35515422699257
H         4.65445698114682   12.28872300726294    3.78066442478332
C         7.99174320275523   11.42188522921077    4.03823196409635
H         8.23887629484249   11.70036247702031    3.01492047412102
H         8.32763025155112   12.20897979884621    4.70978481062499
H         8.53646860284154   10.51422536897431    4.28594019992351
H         6.65229981418077    9.92238394641454    5.87413237190033
H         5.06023801803609   10.59992836475510    5.65683962857771

