87
CSD_code = QIGPAA | q = 0 | S = 0 | Stoichiometry = C30H52N3OTa | MND = 5
Ta        1.33830919348286    4.63684037677990   10.53890950212624
O         3.11046981835687    5.40421278200435   10.74399115540189
C         3.83930468203145    6.56131672830360   10.76708002839447
C         3.97398138024819    7.11983096029635   12.19796495551369
H         4.55074933142572    8.04192908057925   12.19468133091222
H         4.47512682056883    6.39397523546383   12.83357555904331
H         2.98523794218982    7.31826873638809   12.60855195482633
C         5.24509090719186    6.32063754883954   10.18178152600744
H         5.82008212055496    7.24367588007392   10.15939202864289
H         5.77167965007133    5.59256544236894   10.79515978116014
H         5.16929598236802    5.92074252988182    9.17190908750797
C         3.09289054615219    7.64371965213035    9.92239835678386
N         2.91037609298641    7.19843987581110    8.57298682099566
C         2.01261578710588    6.25678682334988    8.20932035968666
N         2.26328725700112    6.05907753648626    6.89198386404773
C         3.28496138840803    6.86446877624129    6.44837925080274
C         3.69680111009247    7.58359054749844    7.51679505817713
H         4.46448952232807    8.32477977782606    7.60788085834088
H         3.61002740997108    6.86986756716698    5.42819392100456
C         1.56219710934624    5.18220371763201    6.02836260797404
C         2.21623868810426    4.06959520103875    5.49994029497297
C         1.52470074182741    3.25092653598465    4.61865971160639
C         0.21214576013195    3.51857494459714    4.25996784528011
C        -0.41754240137890    4.62682223975836    4.81113874144901
C         0.23619581162127    5.46590619824258    5.69939449000070
C        -0.45376828755233    6.63910709973151    6.32033341813448
H        -1.47646499447033    6.71730709902246    5.96266462423540
H         0.07169536773668    7.56448995258586    6.08447489528858
H        -0.45904031481214    6.52064066989525    7.40333055229675
H        -1.44431130708632    4.83650676248966    4.54772346367160
C        -0.53139174483884    2.60808990373607    3.33153364539133
H        -1.19271207630757    3.17554207748161    2.68053129500796
H         0.15517201456311    2.02732008351596    2.72048651870195
H        -1.14339804683970    1.91436358970449    3.90871881824838
H         2.02133507735706    2.38200855867718    4.21052171285124
C         3.62709464343171    3.74678351381094    5.89432868548422
H         3.84605738686678    2.70114852331954    5.69277686970084
H         4.33742487832116    4.35554292978402    5.33368236954090
H         3.78253372608204    3.93744750527859    6.95534518941682
H         3.65420487315891    8.58119093013755    9.92439544797517
H         2.10772905294070    7.79353483880490   10.37818392466575
N        -0.28420966894497    5.34178403286041   10.85490582607699
C        -1.35847729134272    6.16874503434181   11.24980083410880
C        -0.90129150327624    7.07332807404584   12.41532864499180
H        -1.70867772927796    7.72529191637500   12.74045890272102
H        -0.58283547635756    6.45312312786217   13.24849985760568
H        -0.05829713571988    7.68076520194120   12.09186797153991
C        -1.80343906722856    7.06289310771023   10.07335093679218
H        -2.56452691162739    7.76880727084298   10.39729106865526
H        -0.94334348467297    7.60845251402061    9.69252700191739
H        -2.20744701827023    6.44851396517651    9.27403748454651
C        -2.55250101552966    5.31369209977170   11.71915564477844
H        -3.37526534590646    5.94792495658750   12.04031122957048
H        -2.24121465258044    4.68297157391746   12.54716260149404
H        -2.88867918061447    4.67492628768920   10.90757105792257
C         1.36180718855718    3.03749053618955   12.25992377255722
C         2.22204238288000    3.27035867518699   13.50036471746386
C         3.70643450756730    3.30660991710903   13.12716134689905
H         4.32034998588545    3.53494976899422   13.99793529604572
H         4.02356104126851    2.34202538105354   12.73221276445708
H         3.88640569531074    4.06294024793782   12.36715491736634
C         1.81929616710130    4.58074357795998   14.18153313286533
H         2.42259135127738    4.75658763816049   15.07149571902077
H         1.94788300877336    5.41706959795065   13.49710086611770
H         0.77289699196367    4.54041960834732   14.47753955535194
C         1.99828597282985    2.11609225073821   14.49195128308839
H         2.61668673829749    2.24789887989581   15.37870442725678
H         2.25483670902906    1.16170826265141   14.03592604167152
H         0.95663436499864    2.07533529075796   14.80332873205495
H         1.69711984649984    2.10811228749287   11.78651891839227
H         0.33564413297201    2.86590192675277   12.59211203367683
C         0.97286806543234    3.01167437416225    8.89160512381198
C        -0.38664089832440    2.35202981695436    8.64944782130348
C        -0.23685958262026    1.27843668355651    7.55907942983775
H        -1.19921687141227    0.81836992574782    7.34055786186902
H         0.44879797785549    0.49612274492238    7.87969760751693
H         0.14948318019236    1.71981632201648    6.64221533412585
C        -0.91071434468582    1.69303765336836    9.92763488100632
H        -1.84521989951172    1.17032819547670    9.72954527269394
H        -0.19384249115464    0.97121399391316   10.31380678145354
H        -1.08578604727421    2.45433113753094   10.68417440967379
C        -1.40049705433195    3.39534914111258    8.17891798238644
H        -2.39210159572139    2.95413143359380    8.09468658958309
H        -1.42582743172605    4.21099783675459    8.89624029935755
H        -1.11437812562526    3.79007984673281    7.20855415557443
H         1.69403331603518    2.21683833747137    9.13249719352775
H         1.29615829825006    3.44010081357736    7.93977614795168

