69
CSD_code = QIGQOO | q = 0 | S = 0 | Stoichiometry = C28H34N2O4Pt | MND = 6
Pt        2.58567248776377    2.76804043486419    6.71290615502242
N         1.12044432603345    3.90865707372220    7.41659651297556
N         1.46627387290667    1.29187283604260    7.88653888277377
C         0.03330150851908    3.17276044188580    7.72001078372149
C        -0.57085723612932   -0.53560022720534    7.33381741978777
C         0.73987197079318   -0.94614778590289    7.57907222101216
H         1.03013115962509   -1.97981692970750    7.49705696221082
C         0.20387734192240    1.71053567608309    7.70526669908601
C         1.02229016684356    5.23304961028832    7.42596000935410
H         1.91666199949433    5.78587582024035    7.17253932349444
C        -1.60313721303603   -1.53279417795505    6.85591062487514
C        -1.17204281685271    3.78427425292044    8.03807860242080
H        -2.01328423700237    3.15853501988674    8.28668213136456
C        -1.29924524076107    5.16975015998716    8.04006232945138
C        -0.15035083083171    5.89638642654942    7.73008207616145
H        -0.15216361784675    6.97238395289988    7.71188494621947
C        -0.83838575443899    0.82345113171366    7.46792431464774
H        -1.82294318098742    1.21212183173694    7.27743917768051
C        -2.63260951279099    5.81132207210181    8.36639282663380
C        -2.57070823679829    7.33973776729507    8.31814332609475
H        -1.86208628544366    7.72793654246192    9.04604863336991
H        -3.55053485846349    7.74702709748347    8.55582504686319
H        -2.29573828253733    7.68992527351413    7.32623883676451
C         1.71708529856303   -0.00857278833388    7.85328088893497
H         2.74641273453691   -0.30131884173980    8.00998717385587
C        -2.99247035384388   -0.91038523606318    6.70154241832962
H        -3.35411170618272   -0.50562196923868    7.64585845441067
H        -3.69415730514214   -1.67379551245884    6.37273597329172
H        -2.97590570130001   -0.12749597769624    5.94778433836130
C        -3.66999519763205    5.33218376820887    7.34075335180861
H        -3.80079022058274    4.25466203728624    7.37752584581149
H        -3.35964147238258    5.60333229088853    6.33432027994806
H        -4.63121046096666    5.79834253113314    7.54251745865920
C        -1.69577739759385   -2.70826554513135    7.83791645480248
H        -1.99375156467627   -2.35900756641921    8.82539236347935
H        -0.74765823314527   -3.22999019603283    7.92930134764404
H        -2.43855816849933   -3.42070204346641    7.48675960849753
C        -1.13315583192481   -2.01713615987114    5.47549325191406
H        -0.18349312226543   -2.54115385624787    5.54227558346614
H        -1.00342464188030   -1.16495832485029    4.81051225855039
H        -1.87177008762457   -2.68936363488823    5.04498317618512
C        -3.05618169352492    5.38492474842422    9.77949040836961
H        -2.30769040442825    5.68987343438336   10.50773858961016
H        -3.18562864348357    4.30880856180148    9.85111517558242
H        -4.00023281347866    5.85767892595319   10.03845910158521
O         0.92003902198361    2.23025589084346    5.35318303322936
O         3.87727118511414    1.33357248351973    6.10318504999167
C         0.71130363973643    1.47274888104025    4.34484121350887
C         3.14082042698261    1.00532433862099    3.83566442008844
C         3.43114660258504    4.12742892059984    5.41733339801866
H         3.85159941783142    5.00695259463759    5.90346771085476
H         2.65031623769152    4.43271346077614    4.71882284074392
H         4.22294431725868    3.62586670834388    4.86055028293594
C         1.87068831500099    1.35719261980559    3.38394842024495
C         3.38660413410807    0.49637327607315    5.23880196590140
C         3.94692715086625    3.28576769387044    8.16564692195470
H         4.95693717026828    3.11620880274668    7.79932422121800
H         3.77401142759164    2.63219407902835    9.02049591958770
H         3.85032462899423    4.32314887017692    8.48668364765821
O        -0.35952125018051    0.92648430093519    4.12299495606437
C         2.74849213070783    1.68911800282368    1.16963270732681
H         2.59431159281460    1.95054840222720    0.13239776367510
O         3.22472824984897   -0.68714005619632    5.48214943648859
C         4.01474891690068    1.35474037578160    1.62118791591244
H         4.85213568700298    1.35689652185718    0.93811320367207
C         1.68087402996287    1.68775620465345    2.04842942987512
H         0.68611676889535    1.94303778372975    1.71262698882150
C         4.20797546917652    1.00228518338877    2.94523260895450
H         5.18887418630511    0.71650171413022    3.29786459820234

