135
CSD_code = QIGQOM | q = 0 | S = 0 | Stoichiometry = C54H76N2O2Zn | MND = 4
Zn       14.94361786586548   10.60515667712572   10.12495483366214
O        16.74922982373331   10.41771088805193    9.78453891919390
N        13.93986904149080    9.13613032712160   10.92110898040827
O        14.84695789649824   11.73155225744144   11.58513122354547
N        14.50294804350874   11.39406109250369    8.39959069907518
C        17.63213676501254   12.82660147853734    7.19626550452261
H        17.12003865651060   13.42475223613806    6.45533337174344
C        15.44390568295694   12.03195444114294    7.77637800611269
H        15.13809893934458   12.64780130780414    6.92226290786766
C        17.44728099282998   11.19230671724493    9.02659389910629
C        12.88631171808353   14.93335814924154    8.65720815014814
H        11.94852815157055   15.28458108316952    8.23261976099622
H        13.63887267729584   14.93109192996316    7.87121146885182
H        13.19852637529976   15.63257345206569    9.42963401690135
C        12.08946842794922    5.92856608706798    8.96913405321983
H        11.60914077437766    5.08390338932452    8.49761297738160
C        13.20565659903732   11.49023975671901    7.82861430412830
C        11.32725016507755    6.95008235975415    9.50063935195653
H        10.25126708739798    6.89826413578669    9.43398411046456
C        19.58139693406748   10.37025590132416   10.17087396462631
C        14.71836631663045   11.36647113609405   12.81317562692496
C        14.04100087905440    9.72061463496425   14.52061496612400
H        13.65287605768932    8.73376909325532   14.72077015059117
C        13.82397277938142    9.10503773933696   12.21372169641907
H        13.34615283139988    8.21504653196540   12.63863242473319
C        18.87555649227108   11.23508627571910    9.13115955846361
C        15.04435326465462   12.26119475058197   13.88720771324005
C        14.21620863496037   10.07611481412828   13.16367090974773
C        19.08146044628886   10.74776495525373   11.57123831485819
H        18.00795089043122   10.60717322598284   11.64718584378530
H        19.31246587502421   11.79017342923841   11.78042016806686
H        19.56553136106375   10.12613608888776   12.32222053895477
C        18.99674303025065   12.86617912744384    7.30219242789155
C        11.92261666916857    8.03438227094915   10.13160176034580
C        15.60954570214718    7.11093421743327    9.76460012399036
H        15.90650205254434    8.15858880915752    9.87487575000825
C        12.82624494113573   10.52886594540439    6.88327849830924
C        14.35102610860440   10.57780253571876   15.53761897541432
C        11.59796826482083   10.67016311713431    6.25340569603177
H        11.29291428825735    9.95437699215961    5.50704947832645
C        21.10496005786898   10.53925583775287   10.15937921770380
H        21.53705804595799    9.89986420353453   10.92694837953825
H        21.39209651468926   11.56471081741437   10.38109088651607
H        21.53069492342003   10.24431551508631    9.20264028252809
C        12.72616261184893   13.53271080658550    9.25148322759518
H        13.68603302400458   13.23544815757151    9.68490967673037
C        15.59868530718184   13.64677156287544   13.57339681085935
C        16.83645899252167   12.01412884361915    8.02982224724637
C        14.85601108544976   11.84304164388475   15.17925099167556
H        15.10465102272368   12.51705264652462   15.98092079689906
C        14.10498797950060    7.06133421202299    9.64956279724699
C        19.81226370854845   13.74819922833050    6.36660213561694
C        11.12522340510956   12.63561508294834    7.53315511310080
H        10.45607075200478   13.44561375621250    7.77996286894588
C        16.89885304340639   13.50119625830514   12.77222682385801
H        17.63493053769053   12.94998476048205   13.35400970611046
H        17.30548797366644   14.48268841216866   12.53548139593067
H        16.72042775953291   12.96931838612669   11.84319442608395
C        12.34845624577221   12.53396643188601    8.18358180846386
C        10.75821952006317   11.72454093905000    6.56291398914076
H         9.81163113831636   11.82771714538348    6.05339011950659
C        13.31987028199585    8.06981234157166   10.22001353080126
C        19.58493190348965   12.05488370504299    8.28680541324301
H        20.65510558405834   12.07803924420419    8.37926772358978
C        15.91453658624040   14.46528618130897   14.83043409552116
H        15.02066479014223   14.64066617781984   15.42549888627844
H        16.30994259777083   15.43420116474169   14.53130152395715
H        16.66670126471163   13.97473558699152   15.44447325409619
C        16.32046917148210    6.55493775067539    8.53130656322438
H        16.21782783390429    5.47422977363485    8.46441642453843
H        17.38144468216654    6.78676127086827    8.58654709986805
H        15.91991490794788    7.00306684785527    7.62489006228004
C        16.05421060018932    6.35938117034515   11.02315193329135
H        15.73475336166589    5.31957047739539   10.97682204246834
H        15.62434231412151    6.81410241694969   11.91317711327262
H        17.13762274242087    6.38795332656550   11.11316504960936
C        13.75045612727512    9.37881222489394    6.55328144760148
H        14.38009897721861    9.19397300063501    7.43220476687111
C        11.68871493033866   13.53079459542788   10.37587954027859
H        10.70483811688572   13.81011966580553   10.00674290358573
H        11.97788808641748   14.23695384610760   11.15022056809581
H        11.62419596851534   12.54073999126422   10.82173797234742
C        10.11475383734068    9.69442006474205    9.62182870015029
H        10.67246128259768    9.97652254452582    8.73286890525234
H         9.60214071876399   10.57659621624068    9.99908452441201
H         9.36315136080800    8.96034216782938    9.34265567424136
C        14.66014553025465    9.74511958377595    5.37610758372677
H        14.06280285037521   10.03214378934247    4.51257461580187
H        15.27813364390974    8.89259046726933    5.10213205371195
H        15.31738788899883   10.57215627496580    5.63419100072127
C        11.06021969196506    9.14352826515186   10.69124989610519
H        11.70784459536230    9.96555234075382   11.01248693001369
C        10.26552439978451    8.65529633711534   11.90546879390201
H         9.64531364465222    9.46018642492377   12.29402519135190
H        10.93225623117091    8.32463880832269   12.69865196610812
H         9.62015076789211    7.82350472199318   11.63208244831381
C        19.27119227537429    8.89495861502765    9.88602870607818
H        19.77886368347493    8.25810389988270   10.60821448565137
H        19.60799092194261    8.62521506371143    8.88624746477820
H        18.20354880367278    8.72167094883117    9.95676312176352
C        13.46838523644609    5.99270784339500    9.03504314446281
H        14.05404926903890    5.19193153283578    8.61261111819490
C        14.56392399485921   14.42668083149111   12.75292905151360
H        14.36107194751743   13.90643583896706   11.82398802983936
H        14.93912518638098   15.42225998391636   12.52313855099940
H        13.63563734044363   14.52456275725111   13.31368235813608
C        12.98830362425571    8.09094472966150    6.24242931029894
H        12.22756742675977    7.90422605954684    6.99596511128471
H        13.67546245622003    7.24789059289727    6.23888716576137
H        12.51519071933268    8.13901386374829    5.26446668493349
C        13.18579893868162   11.23614532350131   17.63598602364960
H        13.55247366453555   12.25653648925454   17.56786712888925
H        13.02960017777373   11.00006372288359   18.68665011818205
H        12.22737070158072   11.18400824381405   17.12355391629890
C        14.17458098906126   10.24239854363267   17.01032331769247
C        21.31658652335341   13.67994533806386    6.64320377313296
H        21.69668930180784   12.67101469368244    6.50080017914566
H        21.54441373466938   14.00980350861832    7.65409893046238
H        21.84129352410072   14.33536021159182    5.95057883441862
C        13.62863168899346    8.82798271137161   17.22473423597884
H        13.52494991189759    8.63574122912178   18.29080177456146
H        14.30475649414614    8.08245510327681   16.81273258109666
H        12.64913253938569    8.71364746342868   16.76610365695260
C        19.57267191895956   13.29160237260397    4.92026139511335
H        18.52468488917570   13.38000014269765    4.64747127616899
H        19.86809646144771   12.25121785741672    4.80130544553453
H        20.15709042348053   13.89805202092709    4.23127164573853
C        19.36478995367309   15.20742280428711    6.53008084433372
H        19.94873997747296   15.85549269223004    5.87959276668471
H        19.50745524496327   15.53045484167033    7.55903229753256
H        18.31522653231734   15.32977683552190    6.27793935516420
C        15.53187942954341   10.34213257232234   17.72010430439432
H        15.93855590036130   11.34774774246618   17.66136188129563
H        16.24484908291502    9.65924560862194   17.26301389659726
H        15.42602868423783   10.07973659267574   18.77083509122302

