46
CSD_code = QIGQUU | q = 0 | S = 0 | Stoichiometry = C20H18N2O5Pt | MND = 6
Pt        1.04531877461390   14.30395076430102    4.34568936863726
N         2.24993197876266   16.05896443125670    4.98003512220421
N         2.40041774096469   13.46344099445186    5.53100416094025
O        -1.34729452562097   15.13119350278557    5.58739689177234
O        -0.46064093546839   15.32036607578220    3.48063878553725
O        -0.45837401464858   17.14839331248689    4.88067589383107
O        -0.82789803703808   19.34733107845792    4.90582560608506
O        -0.10235063103618   14.67387012912205    6.09726580344751
C         2.09461014858635   17.32066762642499    4.62631789219888
H         1.83345799743952   17.49621935424308    3.59151294218039
C         2.25126193398079   18.37096992396923    5.52186139403802
H         2.08085404948005   19.38568374356887    5.20283144874439
C         2.56090985155231   18.06692423856842    6.83568449112482
H         2.64270956151845   18.84898352624598    7.57556464555342
C         2.76360895558695   16.74379652712341    7.19869577836937
H         2.99660191910878   16.49224825437095    8.22064835991145
C         2.60378377441574   15.75141735909192    6.23627767887714
C         2.83965139706585   14.32037958832580    6.47843236987637
C         3.53113212909358   13.85223624577495    7.59334324430924
H         3.88199855232835   14.54620336248595    8.33925724555340
C         3.77336023383143   12.49859871706381    7.73793461541032
H         4.29954757117714   12.12544553665454    8.60267122609176
C         3.33458695514776   11.63619187653838    6.74314042132120
H         3.51150840066856   10.57483751434502    6.80555175282644
C         2.65458974238938   12.16226134327316    5.66162156785058
H         2.29800668579458   11.52118391977069    4.86751401686304
C        -1.15267990937610   15.88863635959377    4.46423209010736
C        -2.50278769182906   16.41217503062816    4.01020944513341
C        -3.59228710743714   15.72063381853564    3.52820045732176
H        -3.56772357370567   14.64707888227403    3.43320408810134
C        -4.71539377743163   16.45771855320680    3.17675055496417
H        -5.58696102487100   15.94482235633822    2.79705819336062
C        -4.74105586441450   17.84060230697071    3.30428822433719
H        -5.63143317030544   18.38317544501848    3.02207947593124
C        -3.64173055732570   18.53074332531005    3.78871095270327
H        -3.64311630940302   19.60417833846658    3.89675003801333
C        -2.52312701791851   17.79458198735757    4.13932145116754
C        -1.21297227005543   18.22839847630069    4.67933973197825
C        -0.07856157756523   12.62671738915797    3.95214204920402
H         0.48322364138826   11.84828863655037    3.43692305208372
H        -0.92641845482785   12.91906321309104    3.33364997109779
H        -0.44795283692226   12.25721775359854    4.90935321221722
C         2.09478835685733   14.05365342147885    2.57888149003395
H         2.84459933565368   14.84021811675582    2.49523712651625
H         1.41303353355308   14.14132340461913    1.73501362922068
H         2.60416606623412   13.09201423826755    2.51526204294607

