69
CSD_code = QIGSUW | q = 0 | S = 0 | Stoichiometry = C27H36AuClN2O2 | MND = 2
Au        4.42335761359859    6.37730792208959   17.44707733256566
Cl        4.58363524753717    4.22198907233330   18.12775469993121
N         3.83419589665611    8.68760543563378   15.61165358355347
O         4.72673751934404    5.71218158256741   14.56514006326029
N         5.09324027416349    9.31615926376894   17.24250344430984
O         5.14598737048723    7.76681525133264   20.69378667733190
C         0.89714916222959    7.35050593397263   13.58057641882321
H         1.12342396339898    6.29887954779088   13.73906814913589
H         1.25465418787096    7.63051696946946   12.59330997417796
H        -0.18271176746994    7.47652596763958   13.60454023506609
C         4.39572126579835    8.27085010076399   16.75873326773559
C         4.97232410741325   10.38190311274677   16.39540796691219
H         5.43299123415880   11.33090268489696   16.56499369761262
C         7.31937077428371    9.60026652338743   18.42549532757910
C         4.71112563604643    9.05266352895579   20.73316031586068
C         1.54810323977231    8.20509921624885   14.67080607187259
C         7.59761251766560   11.10384427463976   18.38464480094581
H         7.27914800172060   11.55477471581426   17.44918592341228
H         8.66930150072344   11.26942629070122   18.47478441353119
H         7.10881261823098   11.61109889119329   19.21233476290705
C         0.92670636031514    7.84094831428745   16.02648330201365
H        -0.12969645668409    8.09884902707675   16.03910585080808
H         1.41930664788428    8.37852882910878   16.83462164999438
H         1.01972393903253    6.77558649303955   16.22267259689271
C         5.03252030888349    9.85381365603389   19.62082578378980
C         5.81543779124050    9.21467564874729   18.49503077597070
H         5.80793138729983    8.13782555606495   18.70403259289805
C         3.83062100200218    7.59592003107796   13.47087040386759
C         4.19396654071322    9.98169983658521   15.36066068120801
H         3.90702518674874   10.50985179798244   14.47706085797616
C         3.56209737008731   10.91700964210238   21.73225678570254
H         3.00112690694463   11.32741057604112   22.55854462390723
C         4.57462092391934   11.15925302035048   19.58037069473814
H         4.77497378212109   11.77210032901809   18.71552267126764
C         3.84622593690541   11.69763711917612   20.62908200604163
H         3.50383707433949   12.72000383734233   20.57901227550772
C         5.49887921370823    4.53019143806223   14.58259650417695
H         5.17187159630216    3.83014381879573   13.80894361892029
H         5.32893926433689    4.09620528847678   15.56810390759429
H         6.56417871210106    4.74692373201941   14.46086507442947
C         7.97609752288615    9.03278921228718   19.68890177666369
H         9.04851876112427    9.21202420121547   19.66680100038324
H         7.80690238964644    7.96215619302513   19.76592404729480
H         7.56680686416034    9.50862662488189   20.57688542867194
C         3.79321668667961    8.43182778771103   12.36898201541357
H         3.15388401501646    9.29975545452403   12.37194991259221
C         4.55541412018112    8.17458869078827   11.24086793575556
H         4.50060944183442    8.83712059544835   10.39070279519219
C         3.05205221486853    7.82051127678171   14.75169431689689
H         3.06247671649543    6.85282432772121   15.26678892966895
C         5.38065591321329    7.06811681818485   11.21387353117004
H         5.97689795585692    6.85481655942201   10.33939465067045
C         7.93299985308928    8.92493158060068   17.19557966894545
H         7.52987049790553    9.33768020014100   16.27262823338670
H         7.73230142027065    7.85562471226892   17.20865705940542
H         9.01037871018722    9.07241541518498   17.18903322930355
C         4.69668908202230    6.84979943045277   21.66404377926890
H         5.03937865684539    5.87577896609583   21.31809277961814
H         3.60539166588731    6.84114597016368   21.73241950885375
H         5.12742084406865    7.06246862329528   22.64781567535731
C         1.25502056136114    9.68501395166090   14.41517706228324
H         1.66496173793809   10.03412861679676   13.47260191734194
H         1.63958618221657   10.30488440041483   15.22173381094865
H         0.17691921892334    9.82772339556539   14.37359941600108
C         5.45456981256560    6.22640813021661   12.30973721687763
H         6.11117161907436    5.37193739037950   12.27493706550310
C         4.69431190340079    6.48116157899971   13.44583580803049
C         3.98341189664506    9.59919813779592   21.78409902428911
H         3.74040988374804    9.00084748067444   22.64782261997846

