49
CSD_code = QIGSAD | q = 0 | S = 0 | Stoichiometry = C28H8F10O2Zn | MND = 4
Zn        0.61021454235375    5.32066199196211    7.24888704156728
F         2.08836061107760    7.08647795178096    9.35175990952141
F         3.40937535859456    9.45220251897807    9.15501139543730
F        -1.34562048964544    5.40892844327682    4.77341659593606
F         3.58201546743795   10.71473624448916    6.73524363597548
F        -0.00752882155520    2.37128722227791    8.08762650656730
O         2.16617630995017    4.24133939707833    8.23291462889333
F        -3.00960073012437    3.53540940851772    3.70512611084277
F        -3.16802885586502    1.06021261026104    4.84311300253554
O        -0.10634327726381    5.21812727896693    9.25423302160199
F         2.44063739210103    9.58003975553338    4.53169731251497
F         1.13385058658241    7.20111975210961    4.76139756570109
F        -1.66201758072885    0.48378851330745    7.05222929493190
C         0.35742078210830    4.35147072556311   11.40018095971210
C         2.52931804843505    3.19654524635492   11.68035526519598
C         1.29186225976964    3.66552795329218   12.21089904158885
C        -0.84209118615374    4.79825280444805   11.94318612427663
H        -1.53648008807274    5.31929933585892   11.30176584826229
C         2.86670709718916    3.39045356585688   10.32036233145875
C         0.98763288270580    3.44734357142589   13.57196244731273
C         3.43801537342993    2.51893083327374   12.52163488826660
C         0.64693524484851    4.60084721669166   10.00057292712538
C         4.07777967860821    2.91748629393561    9.82764688083268
H         4.30876965223309    3.07781126482248    8.78551669333033
C        -1.13663501590277    4.57620528575006   13.28387321321446
H        -2.07203191107288    4.92698192827973   13.69188504737378
C         1.94806092421344    4.07278217507331    9.42840518130969
C         4.65497668093105    2.05655324909808   11.98766253482298
H         5.34381504534258    1.53970103556558   12.63992448203665
C        -0.61015455269236    3.93379732505828    6.43607621885009
C         4.96893631436333    2.25270980581385   10.66283967876953
H         5.90563163758147    1.89123967093637   10.26727610613156
C         1.92621103463391    2.76207468791036   14.39462297102006
H         1.67636362079499    2.60585223638906   15.43345544249084
C        -0.23697424478915    3.91263011595294   14.08546023550412
H        -0.46108004731927    3.73905316400523   15.12792006836737
C         1.54970711955547    7.09555866171893    7.06295985032878
C        -2.34799713599918    1.98335040081739    5.35515301592428
C        -0.73492370994416    2.67014689495800    6.98715570524552
C        -1.40283090140437    4.19067293911094    5.32841494088077
C         3.10251419622201    2.31675915003941   13.89053525862719
H         3.81078969914584    1.79721770724318   14.51857200898825
C         2.15481798522043    7.70285397249893    8.14974636154348
C         1.67434868797003    7.75966572248963    5.85280142598284
C        -1.57965238721977    1.69165329198837    6.47603160849816
C         2.34570079583291    8.97172707001569    5.71955058789344
C         2.83894546456095    8.91025190101014    8.06949667807460
C         2.93031264717316    9.55233359714880    6.84011330667967
C        -2.26291220520632    3.24542811107439    4.77672864204979

