68
CSD_code = QIGTIL | q = 1 | S = 0 | Stoichiometry = C23H37FeN2O3P2(1+) | MND = 6
C        12.12825161083783   -0.32976466090469    3.70692900700989
C        12.93113859445170   -1.09906694055275    2.86109107801873
C        13.77761078094955   -2.06845977174751    3.39310015042262
H        14.40136120682503   -2.67128807966723    2.75057119748227
C        13.80412947099113   -2.24622949074832    4.77162683741551
H        14.45854185370609   -2.99659726688963    5.18782154714370
C        13.01702794088042   -1.48975563235935    5.63230171709258
H        13.06133274042521   -1.64930576707810    6.69902980267496
C        12.17253504290963   -0.52457888495984    5.08963252220739
C        12.69751515250940   -0.68274652994536    1.49562170035033
C        12.80878731416064   -0.45670413158470   -0.70889422636062
H        12.38037353673995   -1.17655297897068   -1.40993778959284
H        13.64986793914081    0.04910288850308   -1.19033930952690
C        11.75594005115896    0.53616866602872   -0.14624065254362
C        12.10294473355608    1.99422597813219   -0.44437415989490
H        11.39587463438748    2.63750262972320    0.07175985439709
H        12.02902909621713    2.17839293793965   -1.51266584321929
H        13.10887520955955    2.24694772506872   -0.12325704198355
C        10.34990022214848    0.26990848252740   -0.68416010232479
H        10.09339718084404   -0.78474100875003   -0.64829543067543
H        10.28197115949412    0.59933397337182   -1.71709746615883
H         9.63353185688701    0.83006813001396   -0.08914888073746
C        11.25082866532961    0.39658272459127    5.71703892355993
C        10.04169003102408    1.51626548635951    7.20291035833199
H        10.46766699370511    2.29085561535549    7.84514350463758
H         9.17712990706512    1.07555306520828    7.70533327000760
C         9.70735016660940    2.03407298219944    5.77765755974022
C         8.23884526820711    1.82595683943133    5.40865419952514
H         8.09565475061197    2.09219231460211    4.36523348832637
H         7.61187409576492    2.46657834618068    6.02277254799618
H         7.92474567672006    0.79713000059350    5.55701615944088
C        10.02970018780119    3.51723429769946    5.59801204673056
H        11.02562843999109    3.76441297230845    5.95328969949325
H         9.31338222704812    4.11909665165409    6.15030689411130
H         9.95847866569112    3.76737589536047    4.54296059598993
C         9.91139833085895    2.19462754363712    2.30252884124524
C         7.88634638023187   -0.41474589752671    2.32794164151397
H         7.94442354325754   -0.04012411044324    1.30809568757012
H         7.40729141718728    0.34154340725326    2.94546607682458
H         7.29019478601204   -1.32681244070172    2.34385047380143
C        10.00443404209134   -2.23726001932820    1.97560353460325
H         9.17984093778196   -2.94545785525595    2.05993181110386
H        10.90892013241833   -2.69427730573962    2.37332008825740
H        10.15965386803079   -2.00213658560692    0.92819681161850
C         9.20762000975770   -1.63894844851054    4.51228224441640
H         8.40665238293430   -2.35144179505587    4.31391810227853
H         8.89589694351483   -0.97296523644883    5.30984081923199
H        10.09451730569345   -2.18079522750919    4.83724306765046
C        12.66039979608563    3.99397923999520    2.75472578799577
H        13.59845916375746    4.51804063315066    2.93664745258555
H        11.86321122934355    4.47469210131464    3.31789054252434
H        12.41450730744736    4.04776308665243    1.69665310275500
C        13.49661623494121    2.43833682056448    4.95330387505945
H        13.87150320666689    1.48058176556960    5.31012981366657
H        12.76340902595448    2.81236243712764    5.65947998516076
H        14.32368680464403    3.14621667989431    4.89538149047733
C        14.37578779480008    1.75970441385716    2.46939335917278
H        14.27073255632643    1.59599848786978    1.40223737867534
H        14.74958198035671    0.84497843060003    2.92685685739485
H        15.09668641902449    2.56084840923541    2.63396136809817
Fe       10.98748695487645    0.97475234128593    2.98261160765668
N        11.82871492505858    0.26158914557757    1.29010716789554
N        10.57967084167312    1.20096665029184    4.94792778676940
O        13.30564668591482   -1.17251774779785    0.42437857961705
O        11.02360530833389    0.49386054236887    7.01946625853990
O         9.20463983728166    2.98150422941807    1.86102246919493
P        12.79169209509118    2.23882077930496    3.26936966235198
P         9.57925934829921   -0.74215193374046    2.95183249520803

