63
CSD_code = QIGWAG | q = 0 | S = 0 | Stoichiometry = C30H29ClNPPt | MND = 4
Pt       13.30548997776900    8.38213067615131    8.16452561965475
C        12.12660767036071    6.76496071394847    8.24104232357281
C        10.88733951825032    6.49957157006501    7.63602010916709
C        10.32876827848991    5.21796481074540    7.75734890555734
H         9.37404590064926    5.01554461604379    7.29057730313093
C        10.96056205866693    4.21795765223172    8.46361814661935
H        10.51052235216224    3.23927461938288    8.54241153258913
C        12.18075988057087    4.47376123649239    9.07090817128175
H        12.68802065015902    3.69626310744539    9.62583070569938
C        12.74620558686737    5.73158904625663    8.95690267998313
C        14.04526874891146    6.08713519458426    9.64461049907140
H        14.64231146773320    5.18617861980459    9.86267859797404
C        13.68808899396077    6.79570080481852   10.95565232283473
H        14.54699052534933    6.90509347846962   11.61267242159233
H        12.92651663084460    6.22073984008153   11.47786309847959
H        13.27260987886026    7.78507419573128   10.72458707375981
C        15.22965995680125    6.25728511279057    7.54975369931858
H        15.97433527231077    5.49111328973113    7.80408679052657
H        15.67512240270374    6.95581302363415    6.83955171770138
H        14.37570033680848    5.76934844775534    7.07844110691079
C        15.99677734049184    7.52727253129950    9.39886292667397
H        16.62672719184777    6.71909879021107    9.79234648248636
H        15.72190220216763    8.20303420165290   10.20525621547610
H        16.56941335469211    8.10486455516067    8.67461462644644
C        10.12801401504922    7.46110744557709    6.85832037594109
H         9.29521428319599    7.02162407014322    6.31561298217928
C        10.27765421397356    8.79663411971682    6.75145561663501
C         9.42880034154826    9.59382669567131    5.85741219175603
C         8.94878216376615   10.84074540146718    6.25244044346139
H         9.16956477816109   11.20580526319512    7.24533120632088
C         8.17478817465746   11.60108275233706    5.39731739124108
H         7.80815013168755   12.56432457776419    5.72070653024601
C         7.87214759660912   11.13370179467973    4.12930299080461
H         7.27378517903081   11.73194163677483    3.45840279140169
C         8.34457410917142    9.89635790437463    3.72481021104133
H         8.11646349723509    9.52830168997654    2.73503917227909
C         9.11590787509348    9.13225411154022    4.57972488022832
H         9.50149761399037    8.17796937752863    4.25182744309261
C        10.87002299162086   10.30769383553446    9.18557892897679
C         9.58700355581119    9.99092434329655    9.61660768753922
H         8.94658926097707    9.38078934714057    8.99469095084477
C         9.13945885539760   10.45636008098999   10.84084027864917
H         8.14048256878627   10.21491833465614   11.17386715147201
C         9.96850208689177   11.22734762188895   11.63932332383583
H         9.61291108841272   11.58996451160675   12.59269256368571
C        11.25747095198202   11.52406911364525   11.22267377375970
H        11.90771585317075   12.11272102017285   11.85322180060661
C        11.71309918029677   11.05946528493820   10.00323721410433
H        12.72262566020202   11.26567555019216    9.67019064952660
C        11.93390838377339   11.10038752856200    6.57759624417205
C        12.47261593325573   10.78493165944720    5.33343371454176
H        12.64415770512687    9.74266592125621    5.08847657964561
C        12.79443965709030   11.78851736900867    4.44239676287184
H        13.21381794602481   11.54366868346677    3.47750334677137
C        12.58870257198182   13.11361918753173    4.79460714223125
H        12.84526594186919   13.90149624902429    4.10161613211362
C        12.06753219223517   13.42977748796017    6.03747477567962
H        11.91970335451508   14.46387958951618    6.31353888146683
C        11.73948907662804   12.42718387816899    6.93346487902613
H        11.33806062904155   12.67725799810019    7.90577755535159
Cl       14.79215199079777   10.20160400041541    8.07759042526046
N        14.80554064751135    6.98660466121361    8.74770067003788
P        11.58544176602426    9.67592976701728    7.64163126471447

