88
CSD_code = QIGYAI | q = 0 | S = 0 | Stoichiometry = C39H46Cl2Zr | MND = 12
Zr        8.49267190947261    9.93241855695971   12.16590461552352
Cl        6.30143574424616   10.48454324340265   11.57627741678645
Cl        8.67104903268688   11.95176108583096   13.32069840851158
C         9.68014404005086    8.48517758305720   10.65875260517893
C        10.58542942962637    9.53189743646252   10.99917174458972
H        11.55224707422784    9.39107558504673   11.46211885028518
C        10.11755699635641   10.74342201208499   10.42766701623075
C         8.90732825170701   10.44471801760998    9.75106671843391
H         8.33222699088758   11.12202862272744    9.13147192724939
C         8.62249624561914    9.06169819227907    9.90367249785903
C         7.49239631447190    8.34657519480031    9.21304890283067
H         6.74710876760218    9.08162951654783    8.89781578239969
H         6.99544410128127    7.64738764023333    9.89087359007002
C         8.00840078450993    7.58424470688778    7.98761014223931
H         8.48333901839395    8.27090900472217    7.29086482607119
H         7.18980316305615    7.08291675234867    7.47688662748013
H         8.74271590797956    6.83783298050249    8.28350970989644
C        10.87302818856082   12.05470658725708   10.39202226926692
C        11.72297111218935   12.20494119033036   11.66156325392872
H        11.10523728412304   12.08090800268996   12.55272177497899
H        12.17545995677080   13.19362234861215   11.68962421085002
H        12.52553760173111   11.47074982482509   11.68287601034973
C        11.79245451160066   12.05099041285119    9.15957005282992
H        12.49592083341779   11.22312636345786    9.21183284002948
H        12.35328415212120   12.98102502647323    9.10523381299240
H        11.20684912676405   11.94464982757892    8.24944093510517
C         9.88886403563895   13.22673512532054   10.29062265708922
H         9.37237481494339   13.21911118905776    9.33344967417424
H        10.42329732906553   14.17032056984068   10.37496898211499
H         9.14863267262317   13.17531490735627   11.09007645919840
C         9.60417630778532    7.17508717509699   11.43008580702627
H         8.91247629621209    6.48476653442581   10.92634693986927
C        10.93103283852841    6.46894958060204   11.58050028486434
C        11.17624896328046    5.66405746037790   12.68638406187341
H        10.41784878452764    5.56578757944804   13.44979763164175
C        12.38295487968247    5.00062982660654   12.81647904708058
H        12.56389534051601    4.38198258364219   13.68312639764244
C        13.35633558061873    5.12893764935585   11.83991778892187
H        14.29958659462594    4.61342072641088   11.94306943409480
C        13.11292318473611    5.91755692687640   10.72830898812486
H        13.86548827893849    6.01638087508217    9.95968057936247
C        11.90609637487580    6.58150361811327   10.59735195653614
H        11.71567434360621    7.19382204730243    9.72757234219061
C         8.98525793755500    7.63433628612611   12.74265617863591
C         9.64082794861821    8.45484340787014   13.72138012888796
C        10.99546193272136    8.74162306175282   13.99985812181740
H        11.78659842031893    8.23301604200031   13.46417367070831
C        11.30572446228800    9.62565386309057   15.00327182033853
H        12.34868068656289    9.83459416151455   15.18707376342708
C        10.33285060378877   10.25533625976915   15.80901644067221
C        10.78610085607350   11.27441228958786   16.84097054103735
C         9.61544541076690   11.86662006663559   17.62951790506678
H         8.92429540497012   12.37883568308024   16.96475068045725
H         9.99218039281234   12.59259233534348   18.34707669853056
H         9.08228434320730   11.09535407190843   18.18115837019066
C        11.75597611793720   10.62257316252286   17.83569974107336
H        11.26857283880222    9.79657365645022   18.34966104521168
H        12.07328288017428   11.35168640445344   18.57809349513636
H        12.64241527989315   10.23888656920714   17.33849030231325
C        11.48208888268882   12.42095266480793   16.09222054943288
H        12.37810994001526   12.07710181035931   15.58247837533502
H        11.76563885561458   13.20731889274388   16.78821475359093
H        10.80487655697002   12.83874587407144   15.35009527439077
C         9.00473675711822    9.94738003467717   15.59607278549337
H         8.22336969581827   10.37496352850583   16.20584810071101
C         8.64019308671487    9.08395839935268   14.55491705425201
C         7.35004968480328    8.66249058670693   14.07329281735167
C         6.05016075835368    8.98738585558359   14.48235615918673
H         5.92786066582264    9.67834924055130   15.30333052311543
C         7.57635859085149    7.75402228990737   12.97225896991940
C         6.45045595243560    7.14000450277750   12.38760420177198
H         6.57099008923735    6.37015814042843   11.63514431861851
C         5.19461930503626    7.48458462870941   12.81856074287047
H         4.34850972293178    7.00528857633869   12.35079762399819
C         4.96237397959671    8.43054399497819   13.84049455991637
C         3.52803939773804    8.79841353650058   14.18198825690923
C         3.44622780334246    9.89214488357470   15.25017383832562
H         3.88203915076192    9.56019992692995   16.19006988116406
H         2.40320176515728   10.14046002713265   15.43565527493273
H         3.95336887820373   10.79429747542110   14.91628570993353
C         2.78685216485755    7.55862057260329   14.70161313997690
H         3.26828529257069    7.18089468861423   15.60151454728198
H         2.77618992446407    6.76283629477966   13.96178863474837
H         1.75690785802241    7.81362386446165   14.94190482000690
C         2.84814178556496    9.32576878514826   12.91000239260893
H         1.85323210102189    9.69952168182522   13.14246007350528
H         2.75101923793015    8.54776946176198   12.15806572175007
H         3.43630344020439   10.13564236893950   12.48460642162613

