79
CSD_code = QIGYUD | q = 0 | S = 0 | Stoichiometry = C36H39N2PRu | MND = 7
Ru        3.74122622977569   10.39266850075258    7.18605944417642
P         1.65245099106123   11.86133905098598    6.31683028956818
N         3.01435910892557   11.62323203858912    5.47866972519166
N         1.60675686482977   10.42615892360627    7.06845741229388
C         3.55019328679047   12.52895906605592    4.58536806965868
C         4.76992644549988   12.25343505554513    3.96074234538391
H         5.28309422013456   11.33759450977357    4.21262164302051
C         5.30679359919317   13.13004879567108    3.04332289685578
H         6.25294659945710   12.89555596155360    2.57485116404092
C         4.65497973636003   14.31174787943335    2.70533212574355
C         3.44123159852486   14.58492299216475    3.32002453102858
H         2.91083641650813   15.49597496990101    3.07800022602610
C         2.89873708350046   13.71468296342872    4.24347481673468
H         1.95125635821261   13.94205760171165    4.71930155976634
C         5.25273851957821   15.25013250768512    1.69947673101519
H         6.28399936797264   15.48568528014960    1.95963446087057
H         4.68616973976863   16.17682953963068    1.64854340250356
H         5.25576931751194   14.79410540758368    0.70902963437551
C         0.63362012023452    9.99072716516942    7.94792232047545
C        -0.26805711105181   10.85689565951169    8.56442795800199
H        -0.17950688374946   11.92001920282426    8.37279762605399
C        -1.23881778767220   10.37879360469955    9.42249665090841
H        -1.92538501191858   11.07486066880117    9.88511478009678
C        -1.33914250003020    9.02427195378351    9.70415867279868
C        -0.43398043076107    8.15868832592652    9.09592709861253
H        -0.49671054079929    7.09921781433096    9.30311285063462
C         0.53144100011809    8.62463177463755    8.23118575207915
H         1.22273843673895    7.94751249568345    7.75350465906712
C        -2.38063983724665    8.49582115264361   10.64491364608459
H        -3.07530585254861    9.27998311937588   10.93612416357856
H        -1.91266524250715    8.09852948766411   11.54602454871082
H        -2.94247978775319    7.68742721782504   10.17884277924992
C         5.67777668941248    9.61735313642997    6.48423178257226
H         6.29264371119522    9.97070217204353    5.66033233050685
C         4.62781566357546    8.66578279359698    6.28085059468270
C         4.37517881239318    7.74148736680044    7.45737674998302
H         5.24651623718606    7.11577564104685    7.70461293651956
H         3.52583525582796    7.08721737298931    7.26713239028138
C         4.05112205658267    8.73800814255318    8.55507008405002
H         3.39848396502042    8.40885544715469    9.36225366357820
C         5.00859093527705    9.73057583337309    8.83975931278742
C         5.88896927507600   10.12890237092152    7.77758184110837
H         6.69779247513195   10.82826167245775    7.97375752526121
C         5.14257325220305   10.35257404287151   10.20522997867173
H         5.85202765038419    9.77168655898452   10.79796523321867
H         4.18705845827908   10.35079411888198   10.72919138319042
H         5.51585882375480   11.37479311503970   10.14487707348460
C         4.31575452514540    8.19444081954199    4.87903432025192
H         4.63266368925213    8.97802617464956    4.18024235936680
C         2.81189429749864    7.98718995493299    4.68920891216439
H         2.46229846480639    7.12372268707375    5.24957220921583
H         2.58201669844345    7.82589078370602    3.63837021040087
H         2.27692982549830    8.87032207800991    5.03958562861636
C         5.08964593831597    6.91311868918500    4.55135157262298
H         4.78074034335980    6.10246778221047    5.20675638637237
H         6.15893756922107    7.07008626212819    4.67648246786645
H         4.90131467652115    6.61446304382358    3.52246021511294
C         1.93586812460361   13.25166312903593    7.48228934234827
C         1.39090205100005   14.52788593093237    7.44407672221317
H         0.66072396628932   14.79093824906469    6.69205104114811
C         1.79926991172188   15.47015364392008    8.37205229647575
H         1.37703948851879   16.46407097355674    8.34450210966337
C         2.74828058522120   15.14891698443804    9.32903539265520
H         3.05905299637076   15.89078582633373   10.04948330751314
C         3.30653645490746   13.87971315767668    9.35937203497334
H         4.05085204208612   13.63321237707856   10.10251254981002
C         2.90285685178045   12.93814603371516    8.43357550098085
H         3.32913230422307   11.91228959348647    8.44029285375737
C         0.14988031508299   12.12434078122989    5.32574499823562
C         0.19262955874019   11.50146083819070    4.08224365499999
H         1.10354946471810   10.99641659045033    3.78638264737750
C        -0.90715115657151   11.54262250350820    3.24760585135635
H        -0.87050884042638   11.06545759370614    2.27940757512957
C        -2.05824113971188   12.19675665831022    3.65832230007600
H        -2.92105627928192   12.23059407832869    3.00946936445784
C        -2.10746179061457   12.80256906638326    4.90287460635493
H        -3.00924133401902   13.30339193110976    5.22448542139553
C        -1.00779318742995   12.76688355209072    5.74242661014267
H        -1.06013373123923   13.23512175996774    6.71431267244340

