69
CSD_code = QIGZAJ | q = 0 | S = 0 | Stoichiometry = C30H36Cl2Zr | MND = 12
Zr        2.17578810922062   -2.72622131950232    2.68496091556171
Cl        3.70421549783952   -4.48347723557577    2.71568144655036
Cl        3.81671361710218   -1.23750939744721    3.40495917687255
C         2.89335262353057   -3.75885529654265   -0.75776258819584
C         2.50284280788115   -3.41428434492954   -2.20466194446485
H         1.43557385127757   -3.55913206999474   -2.35592088111956
H         3.04275065203217   -4.05077340124290   -2.90173808041627
H         2.74040778545339   -2.37648289825709   -2.42554538749905
C         4.40057096842813   -3.54087442356392   -0.57145162989437
H         4.69458919837197   -2.54946920389030   -0.90842951598513
H         4.95774870218145   -4.27118326215383   -1.15395092352726
H         4.67613023728169   -3.65131353067121    0.47804468989321
C         2.54698908201068   -5.22645246728395   -0.47405823224338
H         2.70150912985799   -5.45858150084425    0.58034206273210
H         3.18348583571582   -5.87791909513489   -1.06854119606616
H         1.51354480629962   -5.44111651601676   -0.73782823596105
C         2.12268311870367   -2.84620842409853    0.17197733508090
C         2.47124428411379   -1.51904139451860    0.52016895213104
H         3.35482744001599   -0.98208148067293    0.19741613195031
C         1.40668181424769   -0.92955632945901    1.25135554260718
C         1.47303273696621    0.51001254871006    1.69166082998656
H         0.60488333938831    1.07217900992444    1.34816720148680
H         2.36088646176802    0.96797371876669    1.25612288379616
H         1.56197447284426    0.60489452123713    2.77686164535882
C         0.35927296202969   -1.89617516477908    1.35005963086898
C         0.82923025336605   -3.08023959690905    0.70047761008197
H         0.24454170051732   -3.96459968344658    0.49166175353057
C        -0.78544014883294   -1.94143048522594    2.37182702418984
C        -1.96962556105738   -2.80655656322489    1.89985711490934
H        -2.63070004717286   -2.21075542432130    1.27424961326186
H        -2.53675218343128   -3.15502870546849    2.75998639609059
H        -1.66749735811465   -3.66212640462672    1.30953576238598
C        -1.39206090884004   -0.56413447868372    2.66387691629920
H        -1.90497363932842   -0.20224317707786    1.77451193062072
H        -0.65173395633860    0.17233313030301    2.93588449412721
H        -2.11965609924465   -0.65097889276393    3.46842129135237
C        -0.04662156934966   -2.55890804224221    3.57546146862198
C         0.74688150190692   -1.85323717981178    4.55568246175319
C         0.78597516278694   -0.52101745098470    5.03154528272031
H         0.08588237959179    0.22363247366746    4.68834222483873
C         1.68254933595318   -0.16089514786503    6.00951386728684
H         1.69872286689712    0.86344043034191    6.35239379811193
C         2.56584637277991   -1.07991879363021    6.58827469110051
H         3.26022865772361   -0.74808744106930    7.34416022917203
C         2.52185326610934   -2.40150231872282    6.21458436575898
H         3.16489216414262   -3.13364681895727    6.68500650916146
C         1.62254595436486   -2.79966623281440    5.21916458942157
C         1.34210532270863   -4.10315667768578    4.68974485105474
C         1.87040857730839   -5.34961049650197    5.03375265489760
H         2.59738301112391   -5.39944276550598    5.83209481131174
C         1.48152300984912   -6.48981057002103    4.35667906610379
C         0.50995204400981   -6.35001746328944    3.35116610423085
H         0.17130399697267   -7.22322070093471    2.81782081132163
C        -0.06356969448537   -5.14463341166527    3.01503171102323
H        -0.86131517598510   -5.15644485168647    2.28900891705720
C         0.32863803225555   -3.95366507679064    3.66870422178933
C         2.09874864786962   -7.82973358200781    4.72313502264108
C         3.62658092276370   -7.71778030556478    4.61975899120976
H         3.90951833071563   -7.34451429869409    3.63830588246659
H         4.08626811125407   -8.69218351873764    4.77056225968043
H         4.02682027965713   -7.03710658644934    5.36542415485254
C         1.69621494086373   -8.18714986807812    6.16110655823635
H         2.02850973666170   -7.42707853000676    6.86303010860546
H         2.14090716303837   -9.13721124895376    6.44936398679712
H         0.61424597407648   -8.27337586877706    6.24007592002917
C         1.64262823367102   -8.96193729404435    3.79892707888873
H         0.56949155456105   -9.12415140398020    3.87145089782968
H         2.13849022714041   -9.88603337999445    4.08880590282923
H         1.90605907497312   -8.74812633914847    2.76574086284495

