59
CSD_code = QIHBEQ | q = 0 | S = 0 | Stoichiometry = C27H29IrN2 | MND = 9
Ir        3.89868434152859    1.52162357476496    0.40860592423032
N         6.11034731283054    1.14138823057980    2.40515897961876
N         4.82845775921979    1.11429328882680    2.15099533867197
C         4.24781225866663    3.64845811239982    0.69516873946114
C         3.08380344421121    3.57663569242817   -0.13914854456930
C         3.47548708707340    2.95054149337765   -1.34572203084806
C         4.91981363992163    2.79521588316886   -1.33135240910994
C         5.39723116658639    3.25853223732027   -0.10661541902445
C         4.34224187267414    4.39553268298710    1.98967561625467
C         1.74971182571157    4.17665975650707    0.17121202985643
C         2.62142878196944    2.81084937219768   -2.56724247033704
C         5.72734339049479    2.34584305340775   -2.50714305938729
C         6.80998845923947    3.38660709008115    0.35078955288434
C         2.33206391713591    1.06065110172969    1.68223421111332
C         0.99518726345497    1.07065302867711    1.33418663193720
C         0.01428028009851    0.84104264546403    2.29287567719069
C         0.36497597165798    0.59484079631855    3.60816045726288
C         1.69741567808805    0.57765886349159    3.97776640531598
C         2.68019800248391    0.81069154900376    3.02296716126856
C         4.10251247397948    0.84161274059825    3.26159919339972
C         5.00096586826936    0.69119209294859    4.30767783133107
C         6.26247541898424    0.89019543017492    3.71753323282062
C         7.57923051125842    0.85964788642282    4.32794800697313
C         7.73843476359140    0.70614116253019    5.70519717800537
C         9.00039669076417    0.68242616463309    6.26750472034805
C        10.12534428248945    0.81359853459043    5.46972811469176
C         9.97887532913663    0.96698535108711    4.09985625026802
C         8.72016222771796    0.98857422132330    3.53378205350548
C         4.41159481448112   -0.52261873685461   -0.04447115502166
C         3.28655646109642   -0.17096408864021   -0.80140097227493
H         3.42525156134459    4.29336584949927    2.56668908301413
H         5.17087950683020    4.02419171104025    2.58859113558172
H         4.50841986070777    5.45706152802024    1.79440133135769
H         1.78557921038966    5.25301620689350   -0.00781747662830
H         0.97134972135086    3.75420030340670   -0.45879473138543
H         1.47586344235445    4.01454416845038    1.21156856824431
H         2.57447661364053    3.76637096032773   -3.09375689967978
H         3.02700695235402    2.07196451274159   -3.25514369676748
H         1.60506044979084    2.51935569053501   -2.30890309446325
H         6.74091063762481    2.08929648590162   -2.20860888532218
H         5.28473346598052    1.47240010828518   -2.98531927952088
H         5.77908242411821    3.14215745650186   -3.25262963209455
H         7.50648652623759    3.14450830706725   -0.44791885617033
H         7.00439954647369    4.40504642508302    0.68679765803160
H         6.99020962596106    2.70888561371253    1.18959834161730
H         0.69111708926655    1.25647349488191    0.31375670448180
H        -1.02663340909604    0.85501435831357    2.00314317645240
H        -0.40274115795555    0.41637406544477    4.34689629147076
H         1.98382892642807    0.38825600249135    5.00145721903943
H         4.77742855279713    0.46611407017342    5.33024250665981
H         6.86951339072028    0.60721482581639    6.33863559467268
H         9.10879223950637    0.56225162257076    7.33662941154128
H        11.11053760266799    0.79589666702971    5.91307475333435
H        10.85348812330653    1.06808468491566    3.47214800119889
H         8.59598185410506    1.10036809956727    2.46761941530124
H         5.39096962359971   -0.54242885434839   -0.51082341167896
H         4.29899957113403   -1.21512488825151    0.78412895002627
H         3.40675405153877    0.05829758332384   -1.85382281391422
H         2.32413270200879   -0.60076627095095   -0.55136661024922

