67
CSD_code = QIHBIU | q = 0 | S = 0 | Stoichiometry = C31H32IrN3 | MND = 8
Ir       14.49494632267845    3.75939794265873    8.22522300343612
N        11.93199759610631    5.15773966658991    8.77075775043148
N        13.24023398346097    5.15811108701835    8.86840331677860
N        14.47126482420846    5.04720474906983    6.33408873602158
C        14.26977019206848    2.16439076319658    9.62996900233836
C        13.19746956318203    1.88814273084918    8.68630189686193
C        13.77856951259654    1.65809056460818    7.44345708499942
C        15.22540435111108    1.68055949656908    7.59415660790666
C        15.52278096319266    1.88573740636118    8.95296821355864
C        14.09017571770220    2.22955074023603   11.11552037070479
C        11.74365168199159    1.88820713318150    9.02725856203747
C        13.05939646166135    1.28859144219970    6.18557296127590
C        16.19554458014489    1.26047870829467    6.53425957945981
C        16.84244338646008    1.71042532734659    9.63425534476583
C        15.75556460538636    5.18704096853510    9.00599054230457
C        17.13934233991460    5.13835751971362    9.00622734273963
C        17.89304547964119    6.17441079285913    9.54802450195696
C        17.27069377529291    7.28091857192040   10.09666014820735
C        15.88911498823568    7.36595876179870   10.10044436495013
C        15.13711196989325    6.33253954062377    9.55896222204276
C        13.69462981196296    6.28951666425050    9.46440538814506
C        12.58663131288920    7.06635966641738    9.76659356580519
C        11.49116832860289    6.30875060557966    9.31065964621416
C        10.07519266020018    6.62122333443653    9.36098436701668
C         9.61248555165357    7.82727998402632    9.88722144805671
C         8.25945481046863    8.10421150612997    9.92576654338208
C         7.34207060485829    7.18639590621902    9.44175133510331
C         7.79003085944954    5.98500674815283    8.91563767235413
C         9.14075973388906    5.70494249766426    8.87460911693553
C        15.22841557277306    4.51979528687889    5.25572130779828
C        14.59978653991887    3.87017863599248    4.20019498093548
C        15.35361228408252    3.31720457809640    3.17909206772850
C        16.73407349421566    3.41673496754494    3.19899890881202
C        17.36097853776324    4.07562827040212    4.24544595696504
C        16.61577358440707    4.62787881665382    5.26928271402342
H        13.48443549126447    5.13060585767484    6.09291097229047
H        14.82484415261171    5.95692253736601    6.63075498343098
H        14.94175035750332    2.71363304103843   11.58714701810984
H        13.99684439246784    1.22127371769064   11.52432432699763
H        13.19238592713259    2.78858550341334   11.36763484029199
H        11.57844948135299    1.38313043979793    9.97743270756775
H        11.16798311092438    1.37984406560204    8.25751658794067
H        11.37719307514531    2.91290429785800    9.11603047757667
H        12.09969224452852    1.79848584270337    6.12050799817044
H        12.87401240746168    0.21245592961599    6.16217602293874
H        13.64986317753540    1.54251872560041    5.30727993195592
H        15.87055012684013    1.58079659500272    5.54631026111863
H        16.28895080393772    0.17261404065579    6.52232533420571
H        17.18146130473700    1.68366351312792    6.71558593106287
H        17.66213362564898    1.74437544741196    8.92096984297635
H        16.86599922896355    0.73944345173806   10.13236072804120
H        17.00237821389006    2.48038634520556   10.38568681798089
H        17.65636848738684    4.28830367188763    8.58287241467226
H        18.97227952156023    6.10981420648505    9.54084215896218
H        17.86270229697598    8.07965271966355   10.51987938238383
H        15.39194458785731    8.22860275863783   10.51936085221286
H        12.57321058317557    8.02416894608253   10.24519157126524
H        10.31656164034481    8.55160260451826   10.26829318617862
H         7.91583102321750    9.04311926497246   10.33759152010900
H         6.28456306349820    7.40591315983607    9.47497178846881
H         7.07844280830991    5.26449447682047    8.53661003293430
H         9.50014666126237    4.77306436696517    8.46580727700928
H        13.52128051832963    3.80054875298733    4.18029928854860
H        14.85832698721140    2.81040468823144    2.36412101697830
H        17.31911374288275    2.98508653880001    2.40160493430524
H        18.43698411492703    4.16032388030213    4.26170489212809
H        17.09403085903305    5.13529923021930    6.09362832913014

