33
CSD_code = QIHCER | q = 0 | S = 0 | Stoichiometry = C13H13O5PW | MND = 6
W         5.69769145323374    5.33007354563086    4.01804230081292
C         3.86867386367166    4.73432409897310    4.56332873202285
C         5.14046810498059    7.21170564469559    4.27662268521916
C         5.05855392120550    5.41288997226196    2.12224899593104
C         7.52770616316363    5.96882403739714    3.51641477146987
C         6.30433226271405    5.26396007619077    5.92194093073165
C         5.73419963600146    1.86481106976262    5.18511299911471
H         6.05130507898326    0.82847372824337    5.07892788932496
H         4.64443332702219    1.91254673513633    5.20649458354834
H         6.11020032658531    2.26752216218243    6.12673799623877
C         7.81462034626548    1.96031294020540    3.27517421981444
H         8.23008213667259    1.23967757595311    3.97226434616978
C         6.53812549936769    1.65815474668896    2.48647917646270
H         6.01158479356398    0.71680917567161    2.60690859746264
C         6.88329217568627    2.07267879781071    1.06958543731242
H         6.02874509423343    2.23645433751276    0.41528055294065
C         7.87733285111241    1.01231338073428    0.55979983660502
H         8.03849860250489    1.12767851007577   -0.51161969205235
H         7.51494144924080    0.00048571533335    0.73832000576440
C         9.16484415905452    1.32305267139348    1.35436519841507
H         9.98171534983635    1.59912017674347    0.68821764293456
H         9.49370001436761    0.47707981594043    1.95701584625102
C         8.75775747604899    2.52307114896757    2.22957812144494
H         9.59613397458800    3.09458688691012    2.62422062806152
C         7.81310533534395    3.26351200880073    1.28598993304275
H         7.31950715250910    4.11924015668434    1.74713683147793
H         8.30472547034381    3.58321231891430    0.36885519966124
O         2.81728764054321    4.43647039729706    4.89451102078603
O         4.81239812776270    8.29381014987494    4.43910594410173
O         4.66101823235887    5.47836072490791    1.05449993193689
O         8.56595111878647    6.37267880838259    3.26825663440494
O         6.63461982567533    5.25835280021270    7.01498563098077
P         6.34354903653817    2.91495568549602    3.80849707220172

