154
CSD_code = QIHDOC | q = 1 | S = 0 | Stoichiometry = C64H86BP2Pt(1+) | MND = 3
Pt       -1.14515758199890   21.30275792637059   11.07915527191822
P        -1.69493935986386   23.48365036896287   10.49803339430692
P        -1.00200712108168   19.07476503369092   11.71934024735516
B         0.81692974025168   21.52718360437523   10.77256382463545
C         1.57967032566148   21.52208097718131    9.40450969085416
C         2.88820334991697   21.73975563304136    9.70048328082177
C         3.10037697713800   21.86379244469692   11.17323610618817
C         1.92744407336319   21.76493986157676   11.85255477349124
C        -3.06187947130669   23.29792358921765    9.25638617799184
H        -3.54030637740983   24.26187097247641    9.05647582556482
C        -2.48302349439891   22.72317217324020    7.96352287723281
H        -1.78016649651765   23.42245968332914    7.50961100893538
H        -1.92838145111295   21.80913258173354    8.20262795855808
C        -3.58392768066450   22.40410291282009    6.95687268483713
H        -4.09657561128779   23.32636092201839    6.67434003410977
H        -3.13476261797854   21.98203795916458    6.05670559133966
C        -4.59154179208525   21.42526571268161    7.54810346135992
H        -5.38760313657170   21.22855558409358    6.82905274007491
H        -4.09212652031179   20.47874389998318    7.76286918961850
C        -5.18455691319255   21.99406507774325    8.83238656286970
H        -5.88585846647753   21.28094206836419    9.27077793056079
H        -5.74055889866020   22.90553512228684    8.60111839096970
C        -4.08670262535514   22.32073899810845    9.83932576267610
H        -3.56317177990896   21.39261909181225   10.11835464313895
H        -4.54190610475862   22.73628950808083   10.74132940308859
C        -2.36191679124856   24.53769933878792   11.88614120004446
H        -1.48776550916092   25.09214666909912   12.25262799562149
C        -2.87234871132822   23.67457964871209   13.04353817160311
H        -3.79035765845406   23.15885495310260   12.75102460268598
H        -2.12290113846310   22.92132890287088   13.30743066111415
C        -3.17256843045020   24.55753186034290   14.25199304370269
H        -3.53704280984223   23.94765393187242   15.08110057629629
H        -2.25443226208583   25.05166739095696   14.57825446334269
C        -4.21640917160635   25.61011715401481   13.88899951861739
H        -4.40111159245088   26.25945371686877   14.74542076943592
H        -5.15791450719386   25.11563030078467   13.63839317208877
C        -3.74961415201537   26.44391041546952   12.69913091616562
H        -4.52162878255699   27.16526150601184   12.42715298348670
H        -2.85358655067979   27.00401303420046   12.97631457787343
C        -3.44046344037982   25.54968934686666   11.49800546789028
H        -3.11753311740753   26.16591293406180   10.65842325080864
H        -4.35429912167832   25.02993860971305   11.20316857050141
C        -0.40176177763964   24.51950802469101    9.65401341583974
H        -0.00959870672466   23.85010659599113    8.87638976334535
C        -0.88057408166012   25.80825268289905    8.98644193754864
H        -1.73773058270166   25.62576971173091    8.33639859354336
H        -1.17231815132223   26.53679783384132    9.74512348260936
C         0.26777236048602   26.39196744725390    8.16268880914412
H         0.55101963628531   25.68004277990536    7.38405175790505
H        -0.06222584951994   27.30957951549368    7.67307314461030
C         1.47418336580670   26.68557124575186    9.04999498203457
H         1.21000542047663   27.45986969380125    9.77378900560929
H         2.29545358935653   27.06678243258440    8.44196341978713
C         1.91893778118048   25.42913524973135    9.79415754204231
H         2.74662797453244   25.66760518999653   10.46445032246561
H         2.27166409024100   24.68192090419332    9.08056759796368
C         0.75719180564104   24.84861537319347   10.59556879595314
H         1.08270018179589   23.94486515895018   11.11620576636661
H         0.44346130968017   25.58378635510168   11.34037812884088
C        -1.75714878298485   17.84897491228493   10.53207355639926
H        -0.91100477576036   17.49739089114294    9.92695071996084
C        -2.74382401469992   18.53339093093970    9.58170414487972
H        -3.64257805664075   18.83387480566789   10.12588462118619
H        -2.28629364824489   19.42943793650320    9.14994862952338
C        -3.14632472892365   17.56579228827952    8.47185755755827
H        -2.26156101006337   17.28483666818776    7.89582584041608
H        -3.84999774531273   18.04819821894975    7.79044631118188
C        -3.78344690243356   16.31435704573849    9.06960103234168
H        -4.71053884885315   16.58766362017535    9.57904493682236
H        -4.03699107593621   15.61195284023258    8.27487876011201
C        -2.83575138054181   15.64953997695099   10.06403685252929
H        -1.94344756051584   15.30084528431815    9.53903929566883
H        -3.31941383370767   14.77977800058462   10.51117134762864
C        -2.42891901406823   16.62979154913720   11.16483299094943
H        -1.75916864708831   16.13199348945901   11.86676999425291
H        -3.32378270333062   16.93501521841552   11.71089858870263
C         0.67456638612768   18.39608130349549   12.15050401319296
H         1.09792659546265   19.16619848547679   12.80974330142335
C         0.70670621444460   17.05762464840324   12.88755164467245
H         0.04190652041303   17.06290974242824   13.75275285225917
H         0.39431421831776   16.25387566578268   12.21828931361152
C         3.08995220933753   16.74039310888289   12.15497332360818
H         2.82218584502692   15.90005911926632   11.51048552091864
H         4.11096416077980   16.57895209523516   12.50273580272144
C         3.01378460087128   18.03685501542678   11.35263288341625
H         3.65739392130601   17.96839675142710   10.47384827368317
H         3.36812742984449   18.87036305256645   11.96201656971279
C         1.57602644875230   18.30752269929765   10.91870674041470
H         1.24824488587113   17.49404813656438   10.26715682981448
H         1.52919106790869   19.24300269566426   10.35548452186526
C        -1.98846434021605   18.98146951267507   13.28881041165059
H        -2.16003102780836   17.94012066454835   13.57917933751349
C        -3.32887943707485   19.67676991591847   13.03390482301129
H        -3.12843045578652   20.69108454871604   12.65381125946302
H        -3.90080071806734   19.13857493575967   12.27448262803798
C        -4.16092250492546   19.77344945409872   14.30839775201975
H        -5.09868800179041   20.29178839345046   14.09748447097018
H        -4.40925688943626   18.76615752840902   14.65060080536847
C        -3.39265880182922   20.50346278453661   15.40449240977111
H        -3.20163928848759   21.53256379589563   15.09474203686930
H        -3.98961264761531   20.53361580531813   16.31673766037512
C        -2.06590172820841   19.80234433550450   15.67147731031628
H        -2.25728843722922   18.79577062485747   16.05014799415893
H        -1.50196541201626   20.34378928201260   16.43242671007095
C        -1.23246273134621   19.71503790254487   14.39664903642432
H        -0.29169943348374   19.21179080211296   14.62216632628496
H        -0.98872257209538   20.72432541075624   14.04745553609465
C         1.02932500491843   21.37679961784959    8.05964285233457
C         0.11500381137261   20.35367514434778    7.81043801689251
H        -0.12599996206848   19.67071823952930    8.61553727854557
C        -0.43853113096133   20.18709940164416    6.55485907205928
H        -1.13513220865086   19.38151778301202    6.37266230610019
C        -0.10300708602273   21.05649601630945    5.53005478034982
H        -0.53587282742178   20.93182425639024    4.54928871929483
C         0.79620671230829   22.08392282781992    5.76767524317723
H         1.05959199540561   22.76324570396937    4.97069297187174
C         1.36320589229173   22.24171969412897    7.01790671708151
H         2.06869176033862   23.04078164006958    7.19406545149965
C         3.99201778437076   21.83442961493174    8.75309429235936
C         4.14394306039534   20.87445296890873    7.75187100270693
H         3.44181677220217   20.05547317403593    7.69386803600240
C         5.19400113098400   20.95637851400727    6.85895885502102
H         5.30772001199409   20.20239604428841    6.09455494622979
C         6.10058903091245   22.00154742194164    6.94303053614668
H         6.91944564502358   22.06487941168353    6.24289269326721
C         5.95264279000208   22.96436009132704    7.92784176016362
H         6.65364871867004   23.78277428268311    7.99397932644817
C         4.91149924036098   22.88090749021399    8.83259240157499
H         4.79318881353335   23.64074924569791    9.59105464066733
C         4.42575538119493   22.07850490642083   11.74087226044960
C         4.63682405058878   23.09136966349309   12.67695330235813
H         3.80894024378258   23.71976792568956   12.97180628751194
C         5.89547524228053   23.30395957726263   13.20368734523217
H         6.05015567216287   24.09745389954653   13.91937524793089
C         6.95832901029876   22.50356853826966   12.81491735867583
H         7.94091301472586   22.67064212708924   13.22883267756209
C         6.75600767913265   21.48871833788136   11.89411306144928
H         7.57977096002975   20.85943164585721   11.59248983575693
C         5.50177524445461   21.27937215924039   11.35329000942467
H         5.34541347638908   20.47936405410883   10.64461434008822
C         1.77989839811795   21.82135324384346   13.30384049215580
C         2.62400994285932   21.12719934363323   14.17042429891702
H         3.43256925930328   20.53542646215589   13.76670587368804
C         2.42953074451453   21.18927590655437   15.53701216425759
H         3.08748833238779   20.64318072898647   16.19646119611863
C         1.39989568210407   21.95194571006887   16.06525325680203
H         1.25828356600514   22.00465453665335   17.13384693811554
C         0.55757458044372   22.65012973302391   15.21577542609054
H        -0.24340219078047   23.25012597450719   15.62324741996442
C         0.74006758057338   22.57517331857331   13.84768605732863
H         0.09841791019209   23.12999414231762   13.17372799321946
C         2.13897104648907   16.78408167467057   13.34769927959528
H         2.45270147879522   17.57160798988291   14.03675149997715
H         2.17637980181323   15.83491030563155   13.88462795833471

