96
CSD_code = QIHJUO | q = 0 | S = 0 | Stoichiometry = C35H51N2O4PPdS2 | MND = 4
C         1.01424707291297    5.07262521068558    2.82687941395464
H         0.27908413980276    5.50697959299902    2.14296358262580
H         1.72045580755996    5.84624044125540    3.11829560704364
H         0.48010833099641    4.73797958641682    3.72502154952422
C         4.69848512784953    2.07532085802822    2.65982816007257
C         4.00127181521259    0.88090741842961    2.71553149576475
C         4.53793734775865   -0.25343191286469    3.29570172823796
H         3.93822870339254   -1.14993178679107    3.29792022300032
C         5.81493954098131   -0.22106016954996    3.82561337427010
H         6.24039860506078   -1.10153150524871    4.28294619522608
C         6.54879733023827    0.95294055850001    3.74791099942373
H         7.55529993726160    0.98942758963126    4.13933093128692
C         5.99859979530927    2.08337850860804    3.17239281462748
H         6.58934473996304    2.98541066424381    3.13050692551163
C         4.30010107425646    2.93065317149185   -0.77609012199143
C         3.25507898997860    3.48605875923676   -1.52158958237955
C         2.86988219796572    2.85703503122141   -2.69881595385136
H         2.06352233414507    3.27167662053005   -3.28467492158842
C         3.49522929538430    1.70705610547978   -3.13418557168775
H         3.18004641203633    1.23122568079547   -4.05151040890809
C         4.51793836868320    1.16135029088091   -2.38560471783586
H         4.99646108780963    0.25429873570084   -2.72183230250874
C         4.93030059453912    1.75670993031394   -1.20207190107123
C         2.53242427278160    4.74432702351306   -1.10113346401705
H         2.88336233051805    5.05379310138183   -0.10614129973347
C         2.80676604456488    5.87527022698005   -2.09766054646883
H         2.47349910964874    5.59715875175568   -3.09469747786817
H         3.87024725438770    6.10145794517016   -2.15135199606629
H         2.27463879037455    6.77434998947772   -1.79799769932684
C         1.02562801871851    4.48585233969424   -0.98210508940209
H         0.53591277832093    5.34856591978112   -0.53005407060149
H         0.85000212559385    3.59882406474482   -0.35606219059499
H         0.57900120455468    4.31146575053442   -1.95870026704228
C         6.03357441454497    1.11174881483632   -0.39862665443931
H         6.15713959060444    1.67068527129381    0.53221119758962
C         5.65711711528346   -0.32766567525014   -0.03808940032849
H         5.68996695382676   -0.97024206229623   -0.91451201701209
H         4.65046431326927   -0.36334747255969    0.37492466329544
H         6.35071028237053   -0.72333279982973    0.70170238202338
C         7.36149856355168    1.15113103068279   -1.16049097394877
H         8.15402695907351    0.71803559080226   -0.55372845175467
H         7.63382484382355    2.17567205867129   -1.40721389258536
H         7.29240837381341    0.58726202062277   -2.08749493350679
C         5.75773662012443    4.61579257936732    0.26422271814248
H         5.40014942238108    5.39646377650975   -0.42072018168353
H         6.67792862510992    4.20041868861317   -0.15976922722863
C         6.00708531767361    5.17189313769409    1.66834305933287
H         6.88059562532947    4.67711023273273    2.11026788356028
H         6.22016919075917    6.23985465582687    1.65176351464376
C         4.28981756408282    5.87821930067504    3.34333587019903
C         3.98618064374711    7.17404031295458    2.89080189405229
C         3.57323589819647    8.12930017250087    3.81065633704256
H         3.37239061669408    9.13509610316514    3.47510480220991
C         3.38012571869787    7.81355462569223    5.13933905238684
H         3.04427555817054    8.56749613204836    5.83544411232641
C         3.59248257920698    6.51764577454800    5.56043535342814
H         3.39966966431085    6.25886696806031    6.58920523166443
C         4.06266562878767    5.54481964020479    4.68850180850599
C         4.00043050944995    7.57161379525746    1.43115969410647
H         4.23902062746094    6.69771076176159    0.82565754381149
C         2.60511385417475    8.02850765470937    0.99405208186718
H         2.26422074987383    8.88135242266938    1.57405017394228
H         1.89431152890104    7.21661904421698    1.12064333691689
H         2.62779750233482    8.31901685908746   -0.05385466297519
C         5.02583699586369    8.67481282558009    1.15129014156592
H         5.08958119118614    8.86576451373992    0.08200233733831
H         6.01605184058890    8.40086760288709    1.51131118502466
H         4.73697793792956    9.59939626687211    1.64451243403900
C         4.29975594480041    4.15255486016336    5.21779427163867
H         4.91359954688059    3.61835888147513    4.49529704512042
C         5.06763568977373    4.15852354351469    6.54364207609055
H         4.44786866024372    4.50788085605153    7.36494181079702
H         5.94475761716084    4.79864630784076    6.47625626479411
H         5.39472954010098    3.14778919893926    6.77871627910142
C         2.97622441731786    3.39604803427319    5.37515643803958
H         2.46446110088449    3.27857777997757    4.40883528260644
H         2.31390427736518    3.93205364726367    6.05194743344232
H         3.16393524914422    2.40447678295580    5.78259223098278
C        -2.60445980932032    2.24152814961243    2.66256039596874
H        -3.13468156226548    1.51840983211262    3.27001289644428
H        -2.97623299612639    2.23760958001288    1.64555678827682
H        -2.72188548124273    3.23248072168439    3.08623112866861
C        -0.99525811485402    0.28186089431461    1.77270070288730
H        -0.01757035310851   -0.17636101294675    1.65882670880867
H        -1.42129370802184    0.50564307309236    0.80044821956752
H        -1.64641047106476   -0.37039211723286    2.34353002368108
N         4.77085670234730    3.55822157254426    0.41635290100646
N         4.82056941208656    4.89262607548883    2.46569530548080
P         3.92881566744101    3.58748292680002    1.87700723058500
S         2.37070789755642    0.74116721738869    1.99179430430608
S        -0.78481191606147    1.84858186561567    2.68813599919356
O         2.38837909492629    1.62726358594105    0.82395890142586
O         1.45771106895033    1.16961517814484    3.06477007762532
O         2.18357814780816   -0.64237519416099    1.62839723015991
O        -0.31189533342286    2.82744137795160    1.66516757915542
Pd        1.73448631092050    3.40242126367624    1.93407264269354

