59
CSD_code = QIHJID | q = 0 | S = 0 | Stoichiometry = C28H25Cl2N2PPd | MND = 4
Pd        1.31763579273553   19.03850524554447    4.98827287629775
Cl        1.58781201674085   17.08066781298692    6.10345207403872
Cl        3.44542941297233   19.65772056073515    5.41236202255540
P         1.11291932165760   20.96805627775297    3.86182705471860
N        -0.61405638355249   18.51774659685171    4.63781628152866
N        -4.62451838593621   18.12584061509587    3.63573393960137
C        -0.35305556322151   21.05355807546368    2.78357183611285
C        -1.59131998163582   21.38139503336244    3.33010973446866
H        -1.64668890756438   21.73779173742519    4.35038561904623
C        -2.74247962354610   21.25881777174406    2.57591137498303
H        -3.69833589347655   21.51725934191780    3.00773469625736
C        -2.67219962359629   20.79756630385959    1.27143851155671
H        -3.57335071139593   20.69596897326668    0.68531478785232
C        -1.44503299550313   20.46642433179651    0.72148597994321
H        -1.38728003141269   20.10628620390784   -0.29507146121345
C        -0.29142304497643   20.58660735106822    1.47391382966742
H         0.66624000632650   20.32027964952209    1.04733483334639
C         2.49060480814788   21.28944893372000    2.72120018228279
C         3.14103496558022   20.16598991803381    2.21456439075867
H         2.83755451237034   19.17632285811297    2.55584365998428
C         4.19052431449828   20.31277746336320    1.32824945657442
H         4.69886647517200   19.44154375853333    0.94228517309678
C         4.60172997828502   21.58164835521432    0.95001221043137
H         5.42847759767323   21.69869914765635    0.26494570086579
C         3.96582462622151   22.69974385270423    1.46268885234980
H         4.29792907438916   23.68785163470432    1.17870042341160
C         2.90985296140035   22.55933464306825    2.34694903963900
H         2.42903185621014   23.43505683985385    2.75791258223115
C         0.95378997530135   22.43224592355308    4.92056908335931
C         0.47646814143623   23.65531708038709    4.45601568292581
H         0.16713994450763   23.75799025310941    3.42420288756664
C         0.37920487154973   24.72812138057661    5.32361621426518
H         0.01312777763080   25.67862389261040    4.96309101029171
C         0.74790031119540   24.58594153944366    6.65247688380808
H         0.67173053976700   25.42870055672254    7.32368404436993
C         1.20592970940861   23.36519714529510    7.12181269091826
H         1.48452341700302   23.25425919976282    8.15907982759995
C         1.30623915588271   22.28717170310418    6.26020397351218
H         1.67061690685193   21.32203259734974    6.61211564547818
C        -1.55744548521175   18.87915932253932    5.48711775148324
C        -2.90856702952446   18.71378137414460    5.18266797160368
H        -3.65416053339219   19.00980202745137    5.90525168333241
C        -3.30519145167832   18.19569396738118    3.96048645071979
C        -2.28641252081478   17.79326645820550    3.04296692296795
C        -0.93892459083979   17.94660973223580    3.45606783265999
C         0.09985393804718   17.49555750037613    2.61549148045355
H         1.12718534062401   17.54849183116208    2.99493424552371
C        -0.18066509679779   16.96285502599952    1.38788010070626
H         0.61658211666934   16.61399342636275    0.74917848261222
C        -1.50835862103942   16.86030238446762    0.95367687742628
H        -1.71871732197339   16.45081425441017   -0.02287356586915
C        -2.53655538378520   17.25461868905657    1.76687632471212
H        -3.55310414587153   17.15163905457060    1.41638418450275
C        -1.11738647141923   19.49293040513152    6.77950939910788
H        -0.16504314822277   19.03730958925656    7.09782721438869
H        -1.86451170013561   19.34621032222868    7.55604217834594
H        -0.96187299606576   20.56892219930523    6.64586966252275
H        -5.29309841088188   18.25375420080787    4.37609284353294
H        -4.91090381276938   17.54087767573752    2.87123835278094

