61
CSD_code = QIHKIB | q = 0 | S = 0 | Stoichiometry = C24H30N2O2PtS2 | MND = 4
Pt       -9.49074716804363   21.72711168202226   10.74938826813657
S        -8.94578197954722   21.82332166839391   12.96276274666871
S        -9.80677319214067   23.90654241008187   11.32151907822397
O        -8.43658387899617   22.44816946833954   15.23670756641519
O        -8.93191351400098   26.53491980286984   14.82801735278794
N        -9.19097383753043   19.76159710694334   10.34437804959590
N        -9.94079418183150   21.64921648203585    8.68959559638686
C        -8.86125519737416   18.84675515575285   11.25376069217482
H        -8.71249534501903   19.20905994766818   12.26333713301197
C        -8.71129328195659   17.51228938186533   10.94571459825118
H        -8.44221885705065   16.82619977950054   11.73141410774068
C        -8.91012911751939   17.06754841558613    9.63461428940457
C        -9.25139855683761   18.03377727065457    8.69878281626786
H        -9.42618470926281   17.75692704515299    7.67433062734327
C        -9.38294515580745   19.37156202976854    9.06650459262630
C        -9.73767711244991   20.44203683907888    8.12830312052773
C        -9.85281882274698   20.26493614196882    6.75050733534490
H        -9.66657523675922   19.29199119972604    6.33188734961708
C       -10.19092775101872   21.32798593075225    5.92440259964370
C       -10.40445213798648   22.56202402245123    6.54640350322435
H       -10.67421906736501   23.43451087306691    5.97489781761983
C       -10.26618237150485   22.67688836821421    7.91334171161456
H       -10.42074259213755   23.62180172994630    8.41863026687735
C        -8.75257960157552   15.59826771921983    9.29663417921525
C        -9.00419492298730   15.30440497505792    7.81556457390418
H        -8.87395341545143   14.24031495715337    7.63318952715760
H        -8.29883887476415   15.83921256070212    7.18329096780058
H       -10.01947972262315   15.56942189029550    7.52874581813037
C        -7.32064345273427   15.16482701865504    9.64178131782550
H        -7.10975994679573   15.29313785062976   10.69942902249341
H        -6.60041116138131   15.75174262448216    9.07563636480734
H        -7.18169503329890   14.11568342860194    9.39254281887966
C        -9.75818802754556   14.79159574119648   10.13055871871864
H        -9.58272451818960   14.91627790304704   11.19512392125339
H        -9.67139232830625   13.73411604167022    9.89319273041999
H       -10.77474565986498   15.11157010223854    9.91153703226001
C       -10.32978668783569   21.20066020399884    4.42002386513105
C       -11.76541258759949   21.57587740529053    4.02561666199391
H       -11.88978302542865   21.48158044702049    2.94962966147908
H       -12.00097997019006   22.59837847071447    4.30636492703699
H       -12.47766913290940   20.91412695305000    4.51404688076555
C        -9.33588419056966   22.16072887505459    3.75082403848164
H        -9.40349009785337   22.06847731524491    2.66960593694790
H        -8.31815506269946   21.92384495818132    4.05379080474477
H        -9.53961401097824   23.19400444489145    4.01636793768476
C       -10.04431051302129   19.78234906171708    3.92014243847163
H       -10.15827362077785   19.75254432254757    2.83910998116719
H       -10.74239575932744   19.06620962188247    4.34802325091658
H        -9.02642812156349   19.48001100178608    4.15622129418305
C        -9.31925616492702   23.50821805334165   12.94371728146010
C        -9.17399473040628   24.32269768530051   14.04358791167413
C        -8.66276697435679   23.65249487155269   15.24086962455496
C        -8.43933312793783   24.44951055967972   16.49440122283175
H        -8.18147451561945   23.76814058941603   17.30234438051521
H        -9.32738289208356   25.02118040600267   16.75133979303969
H        -7.63086731604790   25.15913429305083   16.33576004450140
C        -9.45857191847007   25.76394571723631   14.04735710438086
C       -10.46318764732089   26.27951703780561   13.04389697465821
H       -10.81284845002672   27.25495834452357   13.37477979300268
H       -11.30084641668340   25.59761730198373   12.92820565423608
H        -9.97929733484072   26.39564649400096   12.07574432367410

