77
CSD_code = QIHMAY | q = 1 | S = 0 | Stoichiometry = C32H38MnN4O2(1+) | MND = 6
Mn        0.00000146367697   10.15720175942826   -0.00000007848548
O         0.62292874643230   10.60375712777265   -1.65885325911151
C         1.72054305051427   10.32264830758852   -2.27931781292437
C         3.23838093668656   10.86359091023420   -4.08940378141338
H         3.53249385086176   11.49818947095754   -4.91232060109237
C         2.12202591288316   11.14541874768104   -3.37393337618919
H         1.50422120502062   12.00018804346392   -3.60814293608070
C         5.21749793927941    9.48254978683237   -4.52167096208334
H         5.46971054267114   10.14429745144331   -5.33687019667957
C         4.05294349143842    9.74320161889211   -3.78004837293876
C         6.02081831889003    8.41476813013295   -4.21739992649500
H         6.91272764052525    8.21765783906736   -4.79116981081390
C         5.68322874174039    7.58306563826737   -3.14747192387514
H         6.32396221585791    6.75149607285050   -2.89625589414052
C         4.54899447579288    7.81496642462382   -2.40958331757349
H         4.33640836909893    7.16203582537763   -1.57772143029477
C         3.68964963350367    8.88768847558627   -2.70814534227932
C         2.49664864479732    9.17424446516933   -1.95811400393559
C         1.99444685374763    8.27427977736240   -0.98277602199872
H         2.45064835527661    7.28481690788825   -0.95369791883252
N         0.99415229334873    8.49999310401602   -0.18152039017248
C         0.49876930460482    7.34249846404131    0.53813336690429
H         0.17039912733290    7.66436163107692    1.53096463522402
H         1.28851781872105    6.58846807976893    0.65262896789761
C        -0.68067776847435    6.70614095745047   -0.20859236599667
H        -0.99595444832301    5.81690985708308    0.34018968884258
H        -0.34653562928999    6.38106085339484   -1.19604356550564
C        -1.89549374064756    7.62627572115864   -0.32714137161992
H        -2.69638605016307    7.06905927678019   -0.83813699438264
H        -2.24745951400203    7.87092261508335    0.67872448881921
N        -1.66613950230935    8.89679742241033   -1.04509103232410
C        -1.32991794953739    8.61801623981780   -2.44785355914957
H        -0.36693527373659    8.11832629613285   -2.53145654594313
H        -1.27332719199375    9.55522952752889   -2.99955459501907
H        -2.09821265590264    7.98456558531260   -2.90878256405943
C        -2.93580459170819    9.63194763188676   -1.05016151979538
H        -2.80440827824371   10.58492987879241   -1.55866984217722
H        -3.27432130446342    9.81760808415408   -0.03301495217529
H        -3.71278973484509    9.06043237785684   -1.57358234365515
O        -0.62292834018407    9.71064437320415    1.65885225180592
C        -1.72054266224681    9.99175272311699    2.27931712867948
C        -3.23837939899572    9.45080942362058    4.08940408610898
H        -3.53249144380934    8.81621078071982    4.91232118034304
C        -2.12202475600091    9.16898194158625    3.37393277660586
H        -1.50421990726622    8.31421260079129    3.60814186470338
C        -5.21749706460169   10.83184959174953    4.52167190538164
H        -5.46970862271923   10.17010277176239    5.33687216793470
C        -4.05294256482873   10.57119838426487    3.78004915867316
C        -6.02081812504412   11.89963073659450    4.21740078201540
H        -6.91272691334133   12.09674124879864    4.79117138576776
C        -5.68322941489088   12.73133310130431    3.14747243326164
H        -6.32396359983162   13.56290202096707    2.89625614968404
C        -4.54899555327972   12.49943246608281    2.40958321235710
H        -4.33641094792044   13.15236193501308    1.57772005618848
C        -3.68964948121405   11.42671165001159    2.70814590723337
C        -2.49664968497003   11.14015557774267    1.95811292541774
C        -1.99445158351656   12.04011887379917    0.98277184515742
H        -2.45064642572900   13.02958499841538    0.95370139796225
N        -0.99415702575436   11.81440637227153    0.18151630198729
C        -0.49877079758763   12.97190257883809   -0.53813301612931
H        -0.17039966587126   12.65004065383582   -1.53096414919072
H        -1.28851885945311   13.72593333978831   -0.65262912351722
C         0.68067778638469   13.60825962681998    0.20859125473470
H         0.99595566516422   14.49749048842614   -0.34019079011429
H         0.34653523471871   13.93334123378230    1.19604164083430
C         1.89549410223765   12.68812536230119    0.32714216408366
H         2.69638660901020   13.24534111100494    0.83813782438255
H         2.24745968271267   12.44347819431022   -0.67872370016428
N         1.66614062816398   11.41760387281838    1.04509254831046
C         1.32991868270503   11.69638287314865    2.44785488531635
H         0.36694393291742   12.19609201474660    2.53145582391164
H         1.27330803591180   10.75916542472378    2.99955103021754
H         2.09822612261016   12.32981734385499    2.90878932183683
C         2.93580444195966   10.68245170569688    1.05016121046223
H         2.80440522554048    9.72946823151461    1.55866611737357
H         3.27432210792957   10.49679406665538    0.03301449816500
H         3.71278928202773   11.25396392155126    1.57358500374261

