69
CSD_code = QIHPIG | q = 0 | S = 0 | Stoichiometry = C32H22CdCl2N6O6 | MND = 6
Cd        1.18992860367809    0.39356674637915    4.21147282406521
Cl        3.50017788574092   -1.11010077654156    0.92135157525925
Cl       -1.10686207178365    1.27753988568833    7.64235032401931
O         2.28586682413417   -1.27492843306252    3.56204747779861
O         0.24211972863614   -0.54974687051960    5.82598356999228
O         4.20020054033810   -0.12041211395549   10.52831058675576
O         2.69175678033838    1.27338708978918   11.17777314232006
O        -0.24057083483937   -3.80786740855093   -1.45702900828283
O        -1.65100311665325   -4.44451905370010    0.04141522016195
N         3.10624699279311    0.41465886649869   10.41199278366703
N        -0.59862869886889   -3.91743429605880   -0.29290140735837
N         3.04575893386086    1.18055552595240    5.28974978104953
N         0.71365765718574    2.42227902655746    5.13364847291374
N         1.52725913240349    1.30414769819540    2.15100954936105
N        -0.69939909579155    0.12050577417974    2.95446360912237
C         0.86025677964449   -0.42049408515618    6.93269259958761
C         2.05532285801800   -1.13091217971374    7.23984495844596
C         2.75903850416672   -0.89268428431055    8.38547332955941
C         2.30663411027968    0.06176167812655    9.30619431464316
C         1.08787693735800    0.71693508505226    9.09801313600116
C         0.38859931033728    0.46407743085365    7.95207049963525
C         1.67249872153306   -1.98421932591029    2.69924066940919
C         0.54329776031156   -2.79005860181803    3.02063129745534
C        -0.16614436622180   -3.45051449869032    2.05901073111689
C         0.21594677930014   -3.36118757440320    0.71377168156937
C         1.37507881970394   -2.66311903351383    0.35747715383460
C         2.08104526256058   -2.01232169541984    1.32939057490106
C         4.16898235665829    0.48157270355631    5.32205128876298
C         5.07847247701920    0.56886510177678    6.36690272662793
C         4.78761776319781    1.41515040995703    7.42401978562401
C         3.61569674082393    2.15366178873258    7.38868516518195
C         2.75879068824947    2.01551815926497    6.29687038945090
C         1.49644890524001    2.77035397146868    6.16064211610101
C         1.13050215402272    3.79832856000209    7.03063596925436
C        -0.06548485492458    4.46261453630279    6.82469063109398
C        -0.86371488548035    4.09379754566993    5.75359947345287
C        -0.42823351336062    3.05993768974677    4.93972805440464
C         2.61387512993249    1.98280861860559    1.82437014815481
C         2.98876650338853    2.22230951258006    0.51174096747967
C         2.18922370596581    1.71333678532873   -0.49926062035434
C         1.05164526259184    1.00198199967236   -0.16165134319069
C         0.74435644837987    0.80965343570451    1.18592625186668
C        -0.45379801396821    0.07378765149512    1.63858116454855
C        -1.29356564699322   -0.62350857063097    0.77019169599324
C        -2.40427570308943   -1.27420380334663    1.28304462307344
C        -2.65396333921219   -1.20245272585177    2.64351238013139
C        -1.76509020670447   -0.49513929205054    3.44098442998731
H         2.40166224862553   -1.84595074319471    6.50566584268819
H         3.67981510638194   -1.41522699606347    8.59783234282140
H         0.73125020147869    1.42047618396191    9.83499188976653
H         0.24964760518231   -2.82702310031990    4.06134320093132
H        -1.03857280423619   -4.03625804763175    2.30753823356779
H         1.68039775035681   -2.63563865165348   -0.67757639822560
H         4.33449538205083   -0.17678264087771    4.47866965288061
H         5.98115804152893   -0.02010894691742    6.35810627322991
H         5.45326006320199    1.49176959394616    8.27039893404251
H         3.37479988748670    2.80964764124006    8.20885282217351
H         1.76073681172294    4.07659482741301    7.85869568987716
H        -0.37031829720241    5.25275645821426    7.49382544558382
H        -1.80446937330302    4.58430441590746    5.56299117586222
H        -1.01903995304891    2.72267984699654    4.09664844119250
H         3.20903677796615    2.34675801129848    2.65319761326992
H         3.88567144947736    2.77712358565546    0.28883374505828
H         2.44893986768741    1.86243227636516   -1.53622423760388
H         0.42156732966235    0.60163735164518   -0.93821972850765
H        -1.08469503499640   -0.67818527854179   -0.28545338548914
H        -3.05376449223650   -1.83809476514525    0.63075620170043
H        -3.50874433609815   -1.69406232182467    3.07880470157211
H        -1.90014694164942   -0.42081735440411    4.51260679894122

