103
CSD_code = QIHPAA | q = 1 | S = 0 | Stoichiometry = C46H51FN2P2Rh(1+) | MND = 4
Rh       11.36322390934619    9.99184440347483   12.51956431704837
P        10.33075631192144    8.27513431448318   13.63083956781242
P        13.35687744496203    9.87983167174485   13.56739026988100
F         9.46302295658453   10.05879208276852   11.11126777611400
N        11.70603657376712   12.81557092163215   11.87998407651335
N        12.50704711033266   11.42270695894206   10.22981306030605
C        11.97642741847959   11.58768564390309   11.43972026669813
C        11.97342376104457   14.01559300215924   11.10486228038860
H        12.21199743428103   14.83122038811354   11.78874759951051
H        11.08281534457364   14.29755597248760   10.53038812948053
C        13.13648926163899   13.76196119872771   10.16076138243599
H        14.04699222838945   13.57811264107864   10.73323105268883
H        13.29616788956696   14.62325676392143    9.51380322568544
C        12.80304813064873   12.53030457937824    9.33689231826857
H        11.93861813336327   12.73258920936759    8.69274593456229
H        13.64834495862428   12.25850650421911    8.70457185067747
C        10.92458299825534   12.98272344510465   13.10439426827549
H        10.85588164015902   11.96938374445003   13.54525600681903
C         9.51273271790119   13.47046087613764   12.77680345903731
H         9.52574599745580   14.49514882903349   12.41339408574817
H         8.89896184875404   13.43835054999225   13.67255015347242
H         9.05852818843636   12.83501193112940   12.01918088461745
C        11.59001546460308   13.89418539638958   14.13250435407099
H        12.61855397493739   13.59398137916504   14.31633971139506
H        11.05030348655970   13.81563102045352   15.07234444280960
H        11.57286553030423   14.93723076608364   13.82625518370858
C        12.66924089116545   10.07931325015677    9.68249192751760
H        12.42956841864718    9.39794336386180   10.52277347108297
C        11.67829398397701    9.83586712571898    8.54255761028053
H        10.67083213530243   10.11232821513092    8.84389065001909
H        11.68745914574166    8.78557473284643    8.26355174643459
H        11.94719298464159   10.41795097275017    7.66459979501694
C        14.10079103852942    9.79507551800439    9.23255778811305
H        14.32194242830587   10.25753902428403    8.27370362209673
H        14.23590694395234    8.72293337395608    9.11850655952269
H        14.81144946274496   10.15270851065263    9.97258459818644
C         9.08806103379241    8.92037166423671   14.80941247331005
C         8.53204175752978   10.15637294982455   14.48764795270413
H         8.85878135264532   10.67027144655626   13.58912760627919
C         7.56951514508981   10.72637732545939   15.29873044227499
H         7.13923601030675   11.68238038373585   15.03971470339621
C         7.15579526917826   10.06542127497673   16.44410731195109
H         6.40577756978869   10.50723637120858   17.08207218113210
C         7.70481268953013    8.83590771229026   16.76976105994691
H         7.38050259590383    8.31903588801404   17.66045929748744
C         8.66667369310102    8.26012235958317   15.95785358407340
H         9.08819570122461    7.30037861880405   16.21996264981162
C         9.20782351668736    7.41787509050378   12.45089238307609
C         9.62112430033191    7.32763979285713   11.11678255250894
H        10.62791643446982    7.64266463101960   10.84953953160140
C         8.80263494648041    6.74237182895426   10.16079614163895
H         9.13783165538895    6.66156977784248    9.13747899602981
C         7.55719659554294    6.26006951741901   10.52695006480106
H         6.91479563702857    5.80858303318704    9.78741037478353
C         7.14215589948384    6.34681040520614   11.84729331061067
H         6.17638803857193    5.95929892272478   12.13301896876639
C         7.95729726006919    6.92503907877168   12.80507610320650
H         7.62617099720233    6.98807338015364   13.83108870853628
C        11.01124760295718    6.86210591063056   14.55960447872377
C        11.67764461308811    7.12775094104001   15.75358346036701
H        11.76875826745518    8.14961305835605   16.09849013857930
C        12.21104819946541    6.09401551831162   16.49777527623659
H        12.71692335854686    6.30713882483113   17.42743733431588
C        12.09561090937106    4.78689236668810   16.05179930321507
H        12.50960351090708    3.97884968189841   16.63509497535220
C        11.44987640230647    4.51942688368633   14.85729351777324
H        11.36136000892915    3.50239111887293   14.50593514987031
C        10.91103975910101    5.55152263151720   14.10951015332638
H        10.40850994033859    5.33219790140075   13.17820312324275
C        14.84982150476981   10.63566394890210   12.83019448407232
C        14.95467327472545   12.02408109165040   12.82066453818276
H        14.16332351261438   12.61271536336086   13.26235215016370
C        16.06375796186325   12.64268559492909   12.27577237157236
H        16.14518579014641   13.72002727221088   12.29144468642956
C        17.07897324042434   11.87989538353478   11.71904095823992
H        17.94682158420781   12.36131955364663   11.29542980928711
C        16.97745235897152   10.49917970027825   11.71367162901249
H        17.76584771112876    9.90100606144162   11.28217890425895
C        15.86888976145834    9.87698877510717   12.26418013853656
H        15.80152013978145    8.79879666773195   12.25875414138673
C        13.96457521275599    8.18160179201633   13.84876798540997
C        13.64180556173727    7.22563526722526   12.89128286528327
H        13.01739552525786    7.51357708710250   12.05208486459897
C        14.10591815817451    5.92978890096785   13.00743897731026
H        13.85302698655014    5.19350098568282   12.25921560033390
C        14.89430992849521    5.57700495373618   14.09050219364741
H        15.25600452020104    4.56494708212962   14.18757524659792
C        15.21534117113090    6.52264020206192   15.04974111527465
H        15.82769391619539    6.24653113006688   15.89486960067474
C        14.75592904664461    7.82248234057582   14.93231891464764
H        15.00647641817273    8.55217026997603   15.68795702639671
C        13.37096293242929   10.63020956954210   15.22991880291045
C        12.15666216685823   10.77639692121284   15.89275274290052
H        11.24265049464533   10.46458823501322   15.39987846727676
C        12.10911129093678   11.31528439216285   17.16516339307556
H        11.16024182861747   11.41987724377635   17.67029268883947
C        13.27919780017470   11.72107548015576   17.78585353433624
H        13.24699853776465   12.14464627260653   18.77790646987039
C        14.49221097295474   11.58794002451538   17.12889647944063
H        15.40426218758688   11.90802781529747   17.60999562949734
C        14.54280022714748   11.04605254794938   15.85688216989111
H        15.49212537748614   10.95530472283813   15.34736238120004
H         9.25874407830078    9.11307277831730   11.00783230421482

