74
CSD_code = QIHWAI | q = 0 | S = 0 | Stoichiometry = C25H42IO3P2Re | MND = 6
Re        3.30715712537257    6.92869354032852   16.99431426539089
I         4.52515080554489    9.34390393884510   17.23481841356961
P         4.54392731363109    5.84642777578406   15.11051939312713
P         1.99721176109798    7.03923216607903   19.09292701221408
O         2.04955532951958    7.44946793346399   16.06449347903788
O         4.94798102683552    6.06855939857047   17.87764874126288
O         6.36017255202018    4.36556846968980   18.08576779195129
C         5.49620917970905    4.97597838865383   17.50214625891349
C         4.86434023445518    4.39086328118020   16.19221790984301
H         5.49110314623731    3.60341467310600   15.76970533205053
C         3.55218886497996    3.91257012269839   16.74119565842478
C         3.23268151561603    2.57276314829601   16.91513083932769
H         3.88713941133808    1.80464426307274   16.52881263287308
C         2.08211322695510    2.23111004412337   17.60667586660693
H         1.82437601210570    1.19052843080570   17.73385440419732
C         1.28838066208780    3.21081689168683   18.17740876477519
H         0.42237052850664    2.93171558569847   18.76123830255599
C         1.61238038752677    4.55519773618922   18.02077448971008
C         2.71617090595026    4.89973148606967   17.25778775729745
C         0.83463452741211    5.65125455903945   18.69651090519091
H         0.31186347523031    5.29247283017725   19.58709817111341
H         0.09735918537684    6.05678535966131   17.99395044737837
C         6.23061191846157    6.45968490444487   14.50529868792299
C         7.12161062774416    6.65563765222155   15.73624217886624
H         8.05350028256683    7.13068343143264   15.43160479522726
H         7.37559385481268    5.70994786551528   16.21098451135209
H         6.65688784359253    7.30726344217993   16.47297924418191
C         6.03305757402245    7.82543742495758   13.83725017112767
H         5.66782014256842    7.73862587882591   12.81906349718669
H         6.98263499983260    8.35643902128972   13.80514749344072
H         5.33336763693158    8.43739073663095   14.40402930397043
C         6.93083150290043    5.48237618636480   13.56257172215552
H         7.03707658946514    4.49960952606445   14.01944149959119
H         7.93150401549028    5.85914801973169   13.35326414570273
H         6.41328397429021    5.38245858319449   12.61203036047497
C         3.48184246472650    5.16979745204280   13.68640505647412
C         3.52323734445817    6.15440006629762   12.51818964075341
H         3.30239042556282    7.16167352681464   12.86835399120795
H         2.76681197912315    5.87985049775127   11.78392399206001
H         4.48500364674078    6.14940779742839   12.01385349633399
C         3.94502537127873    3.77904766361783   13.25315431289435
H         4.99055609898695    3.76066707034274   12.96150903346787
H         3.35239604478094    3.46264569672992   12.39534364551436
H         3.78950237343934    3.05403343240192   14.04885673486563
C         2.02694833051902    5.07637124358160   14.15331453906615
H         1.88988105873754    4.30426295961368   14.90552186355352
H         1.38988980994963    4.83391640725942   13.30407013924047
H         1.69170537947787    6.02962246730281   14.56552340020389
C         2.88146790400055    6.54809677946449   20.68643564709726
C         3.33288962793624    5.09057177925948   20.56662760400552
H         2.49106330019959    4.40283145082390   20.51410100600516
H         3.92692299372154    4.82963392577092   21.44169925601388
H         3.96387585883228    4.93616708577756   19.69525106984585
C         1.99881036478504    6.67164115882085   21.92703112564115
H         1.73635353227670    7.70316221608529   22.14324738182386
H         2.54923976168546    6.28724721579494   22.78530615866852
H         1.08986123395342    6.08010845894300   21.82762182099231
C         4.12206871168030    7.43595526038598   20.80678192115294
H         4.78115852078048    7.27997921500829   19.95342951118587
H         4.67898094541639    7.17320631321303   21.70500598138826
H         3.86903995345099    8.49170820907542   20.85965759083945
C         0.85009430221638    8.53250861088866   19.31493467850719
C        -0.42626055821356    8.17076347895176   20.07798488155341
H        -1.02005859430425    7.43736909705405   19.53794506455479
H        -1.03116518558034    9.07049915777101   20.18371115923493
H        -0.22370693118025    7.79232660257661   21.07436267993689
C         1.57779564312839    9.68627491095487   20.00450613348891
H         1.77055865517380    9.48302189751938   21.05462515317202
H         0.95980637672340   10.58135410332683   19.94942052038138
H         2.51832901849892    9.90730033910605   19.50510591503615
C         0.46155545063863    8.98974259984657   17.90622322929903
H         1.32487772610493    9.37791999276919   17.36741356403556
H        -0.27835204669764    9.78553982964895   17.96977438991318
H         0.03515496682947    8.17787133390365   17.31677226257981

