49
CSD_code = QIHYEL | q = 1 | S = 0 | Stoichiometry = C19H20ClN3O3PPtS(1+) | MND = 4
Pt        9.02559432148313    0.06981453572570    1.14086848199263
Cl        6.63698261407416    2.99838009214123   -3.93422794083840
S         9.51870847743234   -0.63732645506112    3.31383517531222
P         7.87524493142605    0.55365763091198    3.61790367532004
O         6.64498209613900    0.14216075581860    2.90453511695480
O         7.65424550148188    0.84010816736911    5.16635138600128
O         8.43284658749271    1.99124353618334    3.10293550911823
N         8.41941093586959    0.84924019978525   -0.51494406896962
N        10.37162630045838    1.54661972707987    1.00506461052633
N         7.57300997370513   -1.23562943371031    0.72248356325380
C         9.00124825779819    1.98737004375915   -0.91075984057635
C        10.15006253928132    2.35633345639619   -0.06455215428762
C        11.37612849784173    1.81072343551641    1.82984936565265
C        12.21915915075233    2.89764710237334    1.64863544406528
C        12.00482931370610    3.73894996041562    0.56871501342604
C        10.95812964297805    3.46242142005105   -0.29845117800600
C         8.46478648489437    2.68533060851689   -1.98576569440078
C         7.31782650870782    2.17436448366361   -2.59856825414723
C         6.70802904990532    1.01249449238742   -2.12029831506605
C         7.29197956187051    0.35760982236912   -1.04228231714288
C         6.82059315364894   -0.84847413802590   -0.34016702733063
C         7.23380073182937   -2.31926344500046    1.40498835894136
C         6.11246332464077   -3.07322302044299    1.09212343773593
C         5.32025279060552   -2.68268136838083    0.02521559345277
C         5.68507452620325   -1.56139013512411   -0.70465462081283
C         6.73586970568915    0.02697270275712    5.89473364951448
C         7.30589187220265   -1.35311728830805    6.15976767498150
C         7.58856386669879    3.13074529448631    3.28571865422665
C         7.84629118757412    4.11787234472434    2.16114642376865
H        11.50277087246487    1.12994505050221    2.66329985944471
H        13.02344766891595    3.07481567597352    2.34372882681409
H        12.63930769398034    4.59486054105966    0.39973905156986
H        10.77292821283868    4.09700622160066   -1.14939848049029
H         8.90059976866776    3.60249420323589   -2.34382296013648
H         5.80391787171778    0.65291312630388   -2.58137496297693
H         7.87829165320729   -2.58610954561071    2.23363269539837
H         5.86793049739159   -3.94194744234703    1.68114836662147
H         4.43432113117990   -3.23887200905004   -0.23835834481620
H         5.09059984715469   -1.24019559591391   -1.54410148820529
H         6.55584968653370    0.56897831461227    6.82582131745561
H         5.80380049521840   -0.04825522125779    5.32568595924065
H         6.61667655912125   -1.92495078539294    6.77449909132680
H         8.26146715736348   -1.27460489615609    6.67198581169351
H         7.45868562570964   -1.87378828135525    5.21571512497139
H         7.23440094274464    5.00291535357987    2.30822944156896
H         8.89387556159277    4.41030949727092    2.15120394627411
H         7.59400279117742    3.67060643320196    1.20108120139554
H         7.81802541780116    3.57744527568258    4.25693720129336
H         6.54346863881001    2.80527955566387    3.28134861886540

