118
CSD_code = QIHYOY | q = 0 | S = 0 | Stoichiometry = C52H59N3PSSiY | MND = 5
Y         5.03877863477103    9.76635344233783    5.19596713973532
S         3.30788196197926   12.08173130431565    5.51029298470684
P         4.38051886660726   12.50218441515763    3.86480348383507
Si        6.10816928718975   10.76739114392792    1.95964432003923
N         6.52602180190904    9.63849261489436    6.92449695118429
N         5.14076456660249    7.41991907298020    5.34378703519189
N         2.62063256388429    8.60557179525930    4.95842366272695
C         8.21352675386032    8.69811576016373    8.45809266373256
H         9.21452832029604    8.58736532514349    8.04364324313275
H         8.06950804286640    7.90628508082937    9.19085339243807
H         8.14835667903774    9.66094854646538    8.95839030329753
C         7.18730153727706    8.57904600687925    7.35050032005832
C         7.00433757406705    7.28032258382693    6.86877656170670
H         7.67479919345508    6.55796949765444    7.31398320513199
C         6.07472540908109    6.73157515124684    5.97845850311825
C         6.15018236317067    5.22923753426371    5.82675351184182
H         7.05309061739230    4.83764150252963    6.28487332960324
H         6.14382980572594    4.94784972649172    4.77570324458419
H         5.29288928600403    4.75492700226486    6.30636064682374
C         4.15181463498336    6.65060777173025    4.60497186482865
H         3.70516297037508    5.88527333455156    5.25637039907501
H         4.61383188733112    6.12593958027078    3.75531545927928
C         3.03107518487312    7.53338413425457    4.04127792722242
H         3.38036983683760    8.00278069788906    3.11322856392667
H         2.17227875406215    6.88507608797371    3.79379305006884
C         1.54466515803098    9.37579257840437    4.33554283209239
H         1.25887531603909   10.19138602203651    4.99859204159554
H         0.66477758368639    8.74683466667601    4.13788833903071
H         1.88558086083516    9.80463821161785    3.39315388113509
C         2.11614692686256    8.05578904201413    6.21919730090235
H         2.90805698292082    7.52636683486817    6.74754547490392
H         1.27678631757688    7.36649146977471    6.04725081155133
H         1.76928177290229    8.87795886870527    6.84584811729922
C         6.74930522133252   10.91224694945559    7.51233990741236
C         5.76116069601084   11.43379096824353    8.36988267263639
C         5.96171539992717   12.68282691246391    8.93776362673663
H         5.22182270651275   13.09690805535914    9.60282395840633
C         7.10515987602318   13.41194495023152    8.66750232903203
H         7.24649599156499   14.37978170408239    9.12546402854843
C         8.06013822786018   12.90425442241810    7.80865584143940
H         8.94505923680352   13.48397382119224    7.59414440822919
C         7.90323838273509   11.65836219272439    7.21661262609931
C         8.94768936176161   11.15240292845119    6.24526005813558
H         8.72043063446506   10.10946968657626    5.99971307654340
C         8.89096982833877   11.96551902891541    4.94756102459109
H         7.90425493649433   11.88452668755212    4.48809601201456
H         9.63114010618760   11.60031549034198    4.23780786409908
H         9.09413040750677   13.01625550894859    5.14112048738474
C        10.35679190084121   11.20729493339616    6.84239852840813
H        10.69618635108302   12.23458143375715    6.94677675025494
H        11.05555067067161   10.68918391295273    6.18874134172170
H        10.38581368621250   10.73789335233791    7.82322108754971
C         4.53390076376573   10.60546900468374    8.69873277182882
H         4.27358081953294   10.00481424510768    7.80328494322591
C         4.85410631579763    9.63902952483189    9.84493833388230
H         5.63674842832343    8.94222702796788    9.55718061461423
H         3.96760591611576    9.06869866371401   10.11588289974954
H         5.18769816084695   10.19464709000506   10.71949768077709
C         3.30871820734125   11.44806216851569    9.04959756035258
H         3.43180796968075   11.94678437061037   10.00779663939506
H         2.43282439676431   10.80576267868145    9.12033116627920
H         3.12657005099853   12.19000084205891    8.27618015071738
C         5.57915879741913   11.27560249703443    3.65182427829034
C         5.09317156112741   14.16188586487050    4.20609657935709
C         6.05901868183033   14.17053148003677    5.20632872947307
H         6.30886141641248   13.23347974518818    5.69053363957753
C         6.67021870708145   15.35113652384419    5.57741656466268
H         7.41627924658876   15.34971817416883    6.35820613928341
C         6.31736164699703   16.53605155964921    4.95041325376086
H         6.79529746689772   17.46277975534930    5.23403126041428
C         5.34237776666050   16.53419558353387    3.96730001228132
H         5.05687658466988   17.45988669933200    3.48769930320143
C         4.72421488697094   15.35281881160801    3.59514416715762
H         3.95383603474528   15.36206503325658    2.83729153157343
C         3.25489457665531   12.88010647293254    2.47139333450831
C         1.88914687982263   12.64888438413037    2.54450033368164
H         1.45969278635232   12.31391467346383    3.47869670874996
C         1.08838551796481   12.87864618484364    1.43973830478847
H         0.02415471229886   12.69989136210285    1.50085583490829
C         1.64710332024007   13.34460609522245    0.26216294295413
H         1.02085291407321   13.52743516556789   -0.59876571796490
C         3.01108710489169   13.58165449529557    0.18747963131888
H         3.44755146520160   13.94893372178447   -0.72980568124564
C         3.81527041773688   13.33936428059974    1.28298722027901
H         4.88211088929505   13.50928355049606    1.23180113703517
C         7.62755136336751   11.71450916954190    1.31150997923035
C         7.82827985173974   13.04752560896747    1.64850991757702
H         7.11032276781156   13.54274614211728    2.28909511070577
C         8.93209757739198   13.74456346073583    1.19227875929123
H         9.06735126091233   14.78185632048373    1.46557224430222
C         9.86446337313481   13.11078520661424    0.38819080268363
H        10.72919016392885   13.65070867536515    0.02870804761889
C         9.68681517940277   11.77917622124949    0.05095316896970
H        10.41508560020842   11.27823426397330   -0.57216404278484
C         8.57898265795610   11.09101557458234    0.51189399112382
H         8.44603026093279   10.04975446008525    0.25099156746528
C         4.87673703731279   10.67568899697063    0.50311685213829
C         5.18776416154555   11.11259389475334   -0.77888986644291
H         6.17352372688459   11.51023250411145   -0.97598493907729
C         4.25536081871034   11.05262478112686   -1.79949745912952
H         4.51664285737152   11.39793717215622   -2.79029817686364
C         2.98700238342461   10.55550375346960   -1.55471917285301
H         2.25611184033085   10.51271129863624   -2.34962390092036
C         2.65763393253048   10.11545901375732   -0.28349354703736
H         1.66738848220759    9.72950178060050   -0.08287793142101
C         3.59844047246452   10.17751002481584    0.72579358284225
H         3.34042286682734    9.84523297534253    1.72555687934693
C         6.64122342903177    8.95521877972928    2.26493825812372
C         7.59456560454220    8.68398031188751    3.24546224847498
H         8.05389173936827    9.51017687755929    3.77473538494005
C         8.03198013041141    7.39182012143376    3.48461978974967
H         8.78993781401831    7.20416862253850    4.23233705565953
C         7.51200402342941    6.33871843519971    2.74992231208232
H         7.86435107128199    5.33052617944763    2.91950717795237
C         6.55183033410898    6.58713585641516    1.78360901786840
H         6.14561756010734    5.76955416788403    1.20220270803730
C         6.12539510233008    7.88329310341360    1.54700614319294
H         5.39211906906545    8.06818876776857    0.77311957328694

