83
CSD_code = QIJDIY | q = 0 | S = 0 | Stoichiometry = C47H31IrN2O2 | MND = 6
Ir       14.74234427557163    2.44317291257828    5.79141951717250
O        13.96745329473902    3.47524526356413    3.98557950319389
N        14.05674884306093    3.83993624666204    7.02329675092833
O        16.41731520229786    3.88339982433992    5.59717738393500
N        15.48556573947103    1.21943244927605    4.41531437239259
C        15.55347515665493    1.76587228190782    7.51479225216357
C        14.55439157098418    0.47766331484169    3.77156884037965
C        11.94736154401643    1.56140729390708    7.77228023587315
H        12.80432848934805    2.08949154021078    8.15816215170488
C        17.66316784386752   -1.82795673999506    8.38807843585590
C        17.06386698308101    1.53874630724024    9.91704192928664
C        14.51183025202627    4.40755663629420    3.34865633057843
C        12.06182897747989    0.97083648641914    6.47716200164469
C        13.21215046017342    1.12593729684671    5.68446644058821
C        16.32540936466178    2.68581512220611    9.65201781829270
H        16.35086895527734    3.49285624838199   10.37005214274339
C        16.83316780833945   -1.71503625309004    7.23625610479629
H        16.75321080633041   -2.57161103113916    6.58120156201703
C        15.58347839418811    2.79944220013730    8.48154714247968
C        10.96806020533584    0.18874372975119    6.01612454588575
C        10.82723093496017    1.44104102138600    8.52132396051427
H        10.76997230336740    1.89244965593669    9.50221927518618
C         8.79799791773799   -1.33233076064148    5.04730493197147
H         7.95290566493560   -1.90645850109456    4.69395486635557
C        16.71388692247774    1.31034522653011    3.91524187767545
H        17.42011056512263    1.89714651482056    4.48645273410296
C        17.72699157572404   -0.72818343244646    9.27857826158531
C        17.86677336516074    1.41410011113315   11.08896524809435
H        17.90093531567277    2.25114781460518   11.77267085900319
C        13.28289074304629    0.39103645808455    4.47668568846538
C        14.86712391874232   -0.15698722283198    2.56989836809157
H        14.11524565235040   -0.72908620509208    2.05126363893415
C        16.55817739594207    4.77810968411145    4.73073762031006
C        18.39254380272601   -2.98343446085317    8.67414044178811
H        18.34031557797891   -3.82069150221469    7.99265266286676
C        16.15266833308866   -0.57700495598346    6.96799783674033
H        15.50329558510524   -0.52193067228744    6.10916249676299
C        18.52293945879796   -0.82374909143194   10.44867897460127
C        16.22822450471964    0.57022348751230    7.81497408240366
C        19.23782226229606   -1.99674467603671   10.69280321014497
H        19.84770282270592   -2.06597366824537   11.58248866134625
C         9.78828786102467    0.07240333073613    6.79195990603196
C         8.68837156100268   -0.68436050797717    6.31307614077019
C         8.52302403328800    0.59131941006185    8.79809940149566
H         8.45840494889635    1.07918462959006    9.76037115650665
C        17.00268827552657    0.45750200208522    9.00155426584691
C        13.73656338391727    6.09226125461208    8.59556908430765
H        13.62088452438717    6.97807325634992    9.20201483154448
C        13.20300121049243    4.79603996709797    6.67097677947783
H        12.65853351945399    4.63508956888420    5.75063297795831
C        14.75443221128774    3.95756060247670    8.17696331751510
C         9.69741484762529    0.71149525268958    8.05284866542207
C         7.53293914545619   -0.77422353160206    7.08990353673180
H         6.69403400336586   -1.34746616249180    6.72122307403394
C        14.60854765218754    5.09132033394442    8.97562938807785
H        15.18145735715012    5.18830330553007    9.88335650681007
C        12.22083897429217   -0.38729689079742    4.02976135970526
H        12.28615017985807   -0.92643010065077    3.09563216153938
C        13.78664896247047    4.89631577510225    2.10582702060181
H        14.41943705392518    4.76257310901681    1.23056850769539
H        13.55333646132601    5.95508054474990    2.19982822750480
H        12.86595143022067    4.33286397436107    1.97346505260933
C        13.00692778394684    5.93716920833494    7.42398350278276
H        12.30474088966674    6.68781501883837    7.09874420494700
C        18.56849931124201    0.28673196925706   11.34243592920378
H        19.17764225869662    0.20065309702761   12.23135925583116
C        19.17186691623030   -3.06176080527076    9.81276100936506
H        19.73226195120883   -3.96254508927558   10.01913173125404
C        15.71011185516436    5.05881128970234    3.65558239585342
H        16.01066199147219    5.85967942630486    2.99594369039660
C        17.08768512050932    0.69717922199641    2.73544888789685
H        18.09535104410035    0.79990860546147    2.36615268468795
C         9.92793552885119   -1.23648708690498    4.31134378998197
H        10.00774284242127   -1.73453932397798    3.35486993278217
C        11.04644401282942   -0.47831407084867    4.76717133420086
C        17.79542414914802    5.65213093727289    4.85146670744210
H        18.37341541267437    5.34987004561141    5.72163604467359
H        17.50576628735235    6.69586686569122    4.95535216094434
H        18.40975024745610    5.55545428182241    3.95831710235490
C         7.45451404450815   -0.14153603530304    8.31737497828478
H         6.55146956338632   -0.22357035737924    8.90545650844693
C        16.13770075210615   -0.04139015664435    2.04182308396650
H        16.38906165027452   -0.52141212081119    1.10789254366112

