63
CSD_code = QIJDEV | q = 0 | S = 0 | Stoichiometry = C28H29Br2FeNP2 | MND = 5
Br       -2.20533086307418    7.96125672861789    0.60858074618806
Br       -2.80720071933986    8.30675807648246    3.92237114269972
Fe       -1.05546652366662    7.68795544449321    2.52812239656290
P         0.21663454639989    9.32428177480806    3.09021527754497
P        -0.47767812069436    6.08279851415147    3.84074452419653
N         0.67421829969418    7.07344258073093    1.35021593933178
H         0.25939803607417    6.54907813381156    0.57816478403788
C        -1.68704274151303    4.72777807350076    4.03424215774332
C         1.66984993250554    9.25211306680995    1.91762421157786
H         1.89014902622954   10.23811534581389    1.50339874168832
H         2.54370774733433    8.91055588976492    2.47684261333850
C         0.19314964532783    6.20772196981317    5.52351738587879
C        -0.55151190891066   10.93338062582290    2.69210514187181
C         1.33190828982121    8.26237455349975    0.80113078725673
H         0.63595393338842    8.72290043310000    0.09571908381695
H         2.24233412628605    7.98596975356733    0.24953459159767
C         0.81893906819271    5.16209393017242    2.86629864957885
H         1.46869759311730    4.56108120972114    3.50475308976435
H         0.28240090185143    4.49138218169515    2.18641096442463
C         1.59977799442289    6.19819789377417    2.07190372828705
H         2.16959061871425    6.81925307060973    2.76707176804209
H         2.30475269657134    5.71749683848366    1.37838735076726
C         0.98277133977444    9.71141698819537    4.69752488109526
C        -0.72414732943626    6.32688245527469    6.56725101890683
H        -1.78299006267163    6.28109767499849    6.34875900667687
C        -1.11317483573222   11.71105917646662    3.70050941798521
H        -1.03066673091002   11.39878168757820    4.73176118927714
C         1.99710195700515   10.28593867139487    7.21834738729026
H         2.39649232051365   10.50668557316597    8.19715302958980
C         2.23490550058818   10.30219737617337    4.82884888211888
H         2.81362651600199   10.56297970019104    3.95439077875874
C        -1.47108604967930    3.67407703259037    4.91771281909491
H        -0.59746656519170    3.67642759747985    5.55541713242944
C        -2.80708536413754    4.71895019386130    3.21146841679879
H        -2.97781319565721    5.53817699787228    2.52263778481809
C        -0.28131126551915    6.50352506659457    7.86333062577989
H        -0.99636792125209    6.58315243579427    8.66878605845436
C         0.23618185408194    9.42901153541919    5.83871754347485
H        -0.74446054218261    8.98624813052493    5.73719868591697
C         2.74008177619334   10.57804157844161    6.08658231722937
H         3.71592943802635   11.03206584163950    6.18285601101284
C         0.73892950255335    9.72181869518158    7.09241861289792
H         0.14742944445664    9.50860094991849    7.96985566367787
C         1.07700551713141    6.58404860401896    8.12808965206423
H         1.42468890110525    6.72097526045796    9.14137225528011
C        -0.70478522968468   11.32070299509580    1.36339971871389
H        -0.31477842632038   10.70458405673107    0.56510685606308
C        -3.71412899271349    3.67712442110845    3.28108849343286
H        -4.58811509383273    3.68139473584828    2.64737793328962
C         1.55296990765294    6.31826861512714    5.79178650559997
H         2.27628649393106    6.25720505839541    4.99053702449200
C        -1.91810370064975   13.26730099739670    2.06054705295403
H        -2.45309027533569   14.17238037969841    1.81412415739145
C        -3.50186925891131    2.63652485766024    4.16919440803105
H        -4.21207454858804    1.82514709490726    4.22989092624211
C        -1.78773110949215   12.87506059205404    3.38245111962692
H        -2.22361840791307   13.47098708698029    4.17041321993710
C        -1.37749385969237   12.48685571450395    1.05207632755455
H        -1.49324164904912   12.77846974800318    0.01836558180169
C        -2.37983350342704    2.63502677918010    4.98363014582930
H        -2.21316822819672    1.82091461942354    5.67398258203178
C         1.99051834381611    6.49819645835491    7.09118608177040
H         3.04905175461206    6.57411047704770    7.29449761841839

