77
CSD_code = QIJFUM | q = 0 | S = 0 | Stoichiometry = C31H42Cl2OTi | MND = 8
Ti        6.04578542323604    4.40247610423367    8.93063526315878
Cl        6.63253448603212    3.01064016029268    7.33552294045343
Cl        4.26294503604425    3.23339558449612    9.47351993683948
O         7.13214293233392    3.92813300394818   10.09619035157578
C         6.74116449260381    6.37683088657381    7.99215924357252
C         5.57798997531724    5.96540742475885    7.26046913531513
C         4.48405635884672    5.96030098025376    8.14890040967209
C         4.94813067674885    6.35264095070531    9.43993446397395
C         6.34002122506679    6.62653065075641    9.34444915099886
C         8.03186163686473    6.70814163591978    7.37493380532371
C         8.64516353294252    7.93493749560082    7.63294855384590
H         8.17030614597018    8.63861228606695    8.30028990268831
C         9.83702345136969    8.26926904667153    7.01664293355002
H        10.29956735528978    9.22266873872386    7.22736727437220
C        10.43275747509879    7.39265386129475    6.12526751043598
H        11.36275995302457    7.65674188310122    5.64383176483619
C         9.82680469866719    6.17644268057963    5.85300793060042
H        10.28545989886097    5.49027596134662    5.15568372061351
C         8.63822962479248    5.83312343854983    6.47012099158559
H         8.18418100349890    4.87016919826465    6.27636401576791
C         5.48594370544111    5.78529584334076    5.77219943782813
H         4.55632612706402    6.21971991329772    5.40384706937284
H         5.50484067565656    4.72983718364860    5.49158757275392
H         6.32097661018418    6.28264462107016    5.28029100197290
C         3.05155842661619    5.72329050309707    7.77028656149610
H         2.59755386995229    6.65582690909680    7.42413085993406
H         2.47995647430069    5.36051432033022    8.62273730978342
H         2.97867739616435    4.98759277914168    6.96959727056712
C         4.05856894079660    6.60091973533977   10.62426564271429
H         4.63899236369221    6.88670019903517   11.49949497097838
H         3.47258436671524    5.71206452138930   10.86469633101463
H         3.36257521984643    7.41147142121698   10.39730328732262
C         7.21066791428453    7.15615570232170   10.45242037711428
H         6.98669354892648    8.20937658960845   10.64077862720889
H         8.26344856812783    7.07093445700486   10.18668942713375
H         7.04835654386368    6.60768621758937   11.38328552993811
C         8.05683297601463    3.47824397406991   10.94249461311416
C         7.66793149049565    2.78554591179200   12.10692002661397
C         8.65007411120475    2.35586262949371   12.98112324122084
H         8.37030401948791    1.83091295388746   13.88068322875227
C         9.99899609651079    2.56714844600668   12.72705355341206
C        10.36410372560878    3.22417545808112   11.56224047701377
H        11.41210445911003    3.37137865973359   11.34990561440141
C         9.41870825493813    3.68962008019268   10.66408721115285
C         9.80784794163420    4.35618715769263    9.36768547917837
H         8.91847018196232    4.87458234442462    8.97759976547105
C        10.20470628489793    3.28278644331564    8.34926638910647
H        11.02813382918629    2.68215168911506    8.73035551173143
H        10.51193134011512    3.74985771160218    7.41682115587773
H         9.35790452545449    2.62809561108465    8.14810106643523
C        10.92793279060001    5.38156451309717    9.54174665955110
H        10.70529904599920    6.06127503426685   10.36203308457363
H        11.03869391511943    5.96349866680458    8.62952794936317
H        11.87627701446340    4.89205835061871    9.74811519193886
C         6.19220809454622    2.54766563633343   12.33088098700137
H         5.76946694526320    2.22200778134593   11.36891463821997
C         5.51410598036690    3.86804310332411   12.71841307300345
H         5.93217654860000    4.24769343028773   13.64993876477472
H         4.44558343820090    3.71289709384759   12.84891245327334
H         5.66151198735611    4.60856330206040   11.92865857629220
C         5.88793936265362    1.47349707149967   13.37063001984211
H         6.41479035472649    0.55084164909017   13.13942684081205
H         4.82038996067716    1.26595731184113   13.37244987182863
H         6.16882380559845    1.80301465211196   14.36884309985397
C        11.04008448018145    2.12882821117647   13.71557735030602
H        10.69191921390859    1.24835677757079   14.25916280078632
H        11.96171728171159    1.86414635554327   13.19331981109312
C        11.33678124765314    3.25185882747251   14.71649157942979
H        10.41386175962411    3.51935259453374   15.23611674525948
H        11.67540753518507    4.13541893077415   14.17056815614248
C        12.39660747509218    2.84552447561292   15.73666853664978
H        13.31678753589057    2.57543918797636   15.21339717962051
H        12.05461843491151    1.96194197956486   16.28049207073357
C        12.68775468741027    3.96738002600419   16.72583509299512
H        13.05095731465385    4.85051500006013   16.20459928726461
H        13.44273779923367    3.65840020831983   17.44494846907222
H        11.78601061951037    4.23938786965210   17.27024380054658

