71
CSD_code = QIJGUL | q = 0 | S = 0 | Stoichiometry = C37H30O2PRe | MND = 8
Re        7.44675193630592    2.32811071156930    4.99314655015109
P         4.01939649983429    5.53783421130259    4.37648369239330
C         6.65046345646626    5.29842759640137    4.26695525530594
C         6.09582200000002    3.94579257061831    4.66898051133510
C         4.71907448852344    3.93891293633172    4.68316702153401
C         5.55637736455837    6.32719936475574    3.93034368155552
H         5.71006541556991    7.37581618063264    4.15125824197653
C         6.36334835286698    5.66911794735104    2.84387729002942
H         5.88675269827838    4.90591096046029    2.24180800057767
H         7.04754266151432    6.30016881912385    2.29440563378300
C         7.83394129243688    5.82649946243749    5.00136426534056
C         7.86017730653306    5.69072605072843    6.38824071395530
H         7.04174129668768    5.18898008084455    6.88317138545610
C         8.92330289961303    6.17236156311910    7.12362005597706
H         8.93144377979383    6.04312331113549    8.19619951030326
C         9.99096353981562    6.81305417647896    6.50240085656635
C         9.95365326792675    6.96366578847857    5.12407986702268
H        10.77203293618829    7.45654594293012    4.61717667701780
C         8.88918730168719    6.48164619288778    4.38152562176242
H         8.90884681502032    6.60634057086789    3.30815275405220
C        11.14709517956568    7.31675030908056    7.31146922959160
H        11.87233642299831    7.82793231465257    6.68281020110668
H        11.64613674783974    6.48841540655492    7.81374970810775
H        10.80058022363039    8.00795968200830    8.07886555716815
C         3.78771892990088    2.82615990171139    4.94070492887307
C         3.79707988452024    2.15257842804123    6.15945456718107
H         4.52587452533020    2.42611505073953    6.90614125572792
C         2.89632241805206    1.13088409263131    6.39577512882670
H         2.91819052648282    0.60880255509612    7.34022905310891
C         1.97445533859838    0.77189349855511    5.42665064653102
H         1.27407474076421   -0.02867517216534    5.61330446260220
C         1.96092042479182    1.43506249607521    4.21192336955848
H         1.25338279194295    1.15147659196852    3.44597860038565
C         2.86088982864535    2.45685029845026    3.97142323964440
H         2.86832480265199    2.95483415360409    3.01056476864992
C         2.70446792405665    5.70713965699441    3.14800616388911
C         2.96495656082281    6.16427338444643    1.86133813199879
H         3.96583448234574    6.46842544242357    1.59028182360215
C         1.93360525023571    6.23545935488978    0.94151681121261
H         2.12912160436871    6.59483273222911   -0.05786478900680
C         0.65295952358473    5.84632013808602    1.30029576940601
H        -0.14713276416895    5.90047716182044    0.57756323439310
C         0.39527191038695    5.38734627057813    2.58379186008943
H        -0.60304411682965    5.08233597619949    2.85899096905605
C         1.41663374103051    5.31674332506156    3.51117106584986
H         1.23462974039433    4.95476540432457    4.51414552698635
C         3.40473444901514    6.32947774996592    5.88595157900813
C         2.55828347150130    7.43275311727528    5.84049815824207
H         2.21787202430389    7.81347463593704    4.88683916654286
C         2.15805360589285    8.03065968661212    7.02134219983523
H         1.50063522872283    8.88714899517591    6.99406693946185
C         2.59895103960899    7.53208680897542    8.23789831357627
H         2.28076053661366    8.00292279902174    9.15599304338323
C         3.44233453180127    6.43290065946251    8.28024527090906
H         3.78236655671906    6.04589595039476    9.22863814438873
C         3.84825954531549    5.82773918489936    7.10497142466064
H         4.49869526055279    4.96356983326606    7.11330895114383
C         9.65519052566899    3.13739302310330    4.68029060093115
H        10.13601229644988    3.97482316546570    5.16585033597894
C         9.75580909106381    1.78233818829953    5.08390811127013
H        10.30477910956618    1.42004783305791    5.94204089884431
C         9.17278105000366    0.97946545141194    4.07739191280545
H         9.19047623883927   -0.10046065766725    4.03845186765318
C         8.69566251667103    1.83730315591079    3.05603123020541
H         8.32744297833869    1.52120387209589    2.08917778971398
C         9.01245228413298    3.16619469316172    3.42421768329125
H         8.90502539232009    4.03337843425936    2.78688400735659
C         6.09859298374279    0.98273454768006    4.75727975107118
O         5.41602107729975    0.07718029181235    4.52064834507916
C         7.10167562539988    2.43102774673279    6.87729648962213
O         6.94776062887039    2.51904794116909    8.02733891442031

