71
CSD_code = QIJGOI | q = 0 | S = 0 | Stoichiometry = C24H42ClOP2Re | MND = 5
Re        4.38216842988259    8.18662343604958   10.75730404774366
Cl        3.10347821649607    6.28752814695176   10.53909053989645
P         2.39633231613836    9.22862091804569   11.68956225353512
P         6.39765317227636    6.76333073905590   10.98694122472278
O         4.87106735960745    9.31028397274214    9.60562883742521
C         5.15360400277275    8.95379637774745   12.52151046352830
C         4.49578728546905    9.99777278496096   13.20087043681910
C         5.00993304562678   10.54481647936164   14.35459936154864
H         4.47829757435205   11.33463679853102   14.86607900828423
C         6.24914333227454   10.10671833359319   14.84734515425163
H         6.64487443851240   10.55117377396008   15.74953131088760
C         6.95661896568674    9.15676664923672   14.17974534164514
H         7.92758621531375    8.84128924812755   14.53457770469967
C         6.44784827380122    8.54463156233838   12.99607615102295
C         3.24050914904295   10.57898458562476   12.59647729171356
H         3.54973606936695   11.31636128193672   11.85072056980589
H         2.60840779395526   11.07244451857464   13.33531885076264
C         7.19457539188888    7.59270238794357   12.31682757716658
H         8.21768477006174    7.37823749899790   12.58472225478529
C         1.37915390273609    8.35217152216974   13.02989384490670
C         2.38444523822680    7.54916361356767   13.86103344219058
H         2.91527102349385    6.82977852204491   13.23904684239078
H         1.86003529095161    6.99962992819878   14.64160405872977
H         3.11686844469796    8.20134787952962   14.33409813861334
C         0.37883376309395    7.38814429498483   12.39300279710977
H        -0.43376244368716    7.91809564570562   11.90151740907771
H        -0.05640903669738    6.75379600024672   13.16470165341281
H         0.87600946748768    6.74276308613381   11.67169331391364
C         0.65292952175828    9.32165724137149   13.96397537755918
H         1.35513741268059    9.86913781264181   14.58745351320604
H         0.01052038873000    8.74367063535173   14.62768768527329
H         0.02715518815167   10.02917823704859   13.43001885911420
C         1.32840529245167   10.05190365093851   10.35953027777646
C         0.97305347701888    8.96671157295953    9.34118782811925
H         1.88670891702624    8.53462405817641    8.93075123629448
H         0.40328708611817    9.39654069187887    8.51838606893724
H         0.38463907884224    8.16738976178120    9.78302449721651
C         0.07296701944909   10.73526828899473   10.89326841590894
H        -0.64230236069463   10.01839059226279   11.28782133989855
H        -0.41209157818323   11.27061154105146   10.07728955676647
H         0.32166354073557   11.46039072604506   11.66630959825037
C         2.20740543261702   11.09125548932676    9.65873562272504
H         2.28819475433593   12.00784230168449   10.23907717692190
H         1.77278967513061   11.34513399245157    8.69344448316522
H         3.20994440282229   10.69226544771110    9.47742625398826
C         7.46058338773667    6.94227927062581    9.42760130013375
C         7.88016314965742    8.41289927027151    9.40364355098274
H         7.00732308889222    9.06085860188496    9.50977666900582
H         8.36545921882073    8.64881672810992    8.45806055855243
H         8.56940900679233    8.63460660252430   10.21540826346182
C         8.71250002401761    6.07051294891127    9.41724444667739
H         9.29434636442666    6.21619842910642   10.32514162784100
H         9.33683145757755    6.35744838127625    8.57083250019850
H         8.47091820471918    5.01620693178113    9.30537785121940
C         6.58672062055723    6.64527755945353    8.20843143390549
H         6.21881802035265    5.62203915732382    8.21505870689376
H         7.15753021305115    6.79888547281319    7.29320917498714
H         5.72997433569025    7.32124841411528    8.19218024875468
C         6.26500475222731    4.95909720031588   11.58164745591030
C         7.60132300808313    4.47388470893780   12.14529627496642
H         8.38152455258779    4.42842162792759   11.39386415707570
H         7.46710517029313    3.46852391027590   12.54469273383822
H         7.92966243645943    5.11666071384288   12.95809085788864
C         5.77589738185400    4.02073774515407   10.48345244071599
H         4.86147842486908    4.39954162303006   10.03265348519160
H         5.55892759172749    3.04208106016757   10.91144203829715
H         6.52692069027706    3.88803248360379    9.70757606633305
C         5.25943448427612    4.98704409524131   12.73793822502999
H         5.47320710741226    5.82121140942722   13.40935665186485
H         5.32220573518530    4.06244385775528   13.31026046925371
H         4.24307287067829    5.07965976804517   12.36615513930263

