77
CSD_code = QIJGOF | q = 0 | S = 0 | Stoichiometry = C39H34O2PRe | MND = 8
Re        3.47825489014782    1.10923151241202    4.48536242272485
P        -0.44034541591093    3.67547549543197    4.55892694760085
O         1.64335494204762   -0.86531947637010    2.98490112281169
O         4.79655359915991    1.88082376874830    1.81635877290812
C         0.81972782176291    2.57547936886605    5.15428137031568
C         1.89191861146661    2.54465772597314    4.31166825795666
C         1.85881647877919    3.62847361592028    3.23681825988392
H         1.79465059762380    3.12856360591875    2.26442286959445
C         0.64430565898795    4.59497299172234    3.41359739538797
H         0.98429968517906    5.49809374171089    3.93590903773725
C        -0.01712420852843    4.96578931580658    2.13128075731963
H        -0.40334466135461    4.13680068166773    1.55184410523173
C        -0.11696047891477    6.20464766276555    1.68352558183683
H         0.27428358299156    7.04356435153641    2.23592593968491
H        -0.58410496395832    6.43097891091307    0.74107879956592
C         2.35156101312827   -0.12049129278789    3.53723211746150
C         4.24694704429835    1.60725454963590    2.80172653947463
C         0.46584632976899    1.74853639240677    6.32270543363223
C         0.31047247976060    2.35445595934853    7.56606012463885
H         0.48468912486706    3.41924089605855    7.66493068674472
C        -0.03989221932051    1.60827258135784    8.67507497008925
H        -0.14502529323216    2.09455792832263    9.63525707678146
C        -0.25465751000523    0.23943951775015    8.57118621413970
C        -0.10883207950881   -0.36047125458793    7.32563768622670
H        -0.27076009831254   -1.42459339706235    7.22549174919753
C         0.24456983956274    0.37938630008338    6.21289380721962
H         0.36135098886569   -0.10194505037272    5.25377774978338
C        -0.60996842449743   -0.57359072849797    9.77890124280050
H        -1.19428923628088   -1.44767012102760    9.50017733195971
H        -1.17645718269908    0.01921701460202   10.49413319472077
H         0.29757297500888   -0.92038162928054   10.27521934292031
C        -1.32677127777830    4.67910788315180    5.76791637724135
C        -2.24533433833909    4.01298708160026    6.58127858258124
H        -2.44383962569913    2.96332156881323    6.40907036236930
C        -2.88443203339247    4.69648772275986    7.59684205042839
H        -3.59360325208621    4.18224774405125    8.22785998007618
C        -2.61158117526165    6.04023990403809    7.80770160795585
H        -3.11143461711290    6.57307698002114    8.60238061307458
C        -1.69620430534612    6.70035644671147    7.00309638407702
H        -1.48561827019816    7.74610224449982    7.17070468677009
C        -1.04572353017745    6.02361367018661    5.98664745769722
H        -0.33094981820421    6.53924931207531    5.36184690904409
C        -1.67149244717646    2.74142629841677    3.61424313356271
C        -2.98224829283500    3.18375219781310    3.46899554273320
H        -3.30423284044563    4.09347419608404    3.95718457292163
C        -3.86407702789416    2.45052541964943    2.69596181217250
H        -4.88405648001759    2.78650074967569    2.58182764482675
C        -3.44049537363357    1.28949694477913    2.06735926737754
H        -4.13547598729006    0.72125570557397    1.46751621498455
C        -2.13006323958108    0.85805327730636    2.20361486316666
H        -1.79704495233842   -0.04247676022441    1.71126250483387
C        -1.23974919899334    1.58175813566731    2.97546102891453
H        -0.21318572314911    1.25589504823276    3.08793723602570
C         3.12281474977464    4.45402025564336    3.27206372427341
C         3.82871520807721    4.74731004438549    2.11593757308732
H         3.49173139920481    4.35330689700020    1.16945139695158
C         4.97323143041470    5.52289247729918    2.17075518806401
H         5.51876016400565    5.73005569705795    1.26156492976954
C         5.43575065871352    6.02962106214097    3.37659789602512
C         4.71336030419482    5.75048166146891    4.53188656522843
H         5.05757321607582    6.14095364617937    5.48028102239247
C         3.57060573388143    4.97807888892458    4.48019406431232
H         3.02095849500134    4.76619982572434    5.38772379013196
C         6.68501898288093    6.85460545017144    3.44921268071430
H         7.08162380275685    7.04828345852084    2.45607023295562
H         7.44693899312120    6.33360938998803    4.02848781529790
H         6.48864587526950    7.80714050004738    3.94038302558642
C         3.81125547527982    1.72651303024638    6.76808449182081
H         3.24081470799241    2.44651054805694    7.34067254781132
C         4.99959126133500    1.99582864148616    6.04791148626368
H         5.50783659694134    2.94941653441351    6.00131698466139
C         5.52800667519760    0.75762785627947    5.60709034383914
H         6.49239938375863    0.61257702866856    5.14001597650880
C         4.64758552181046   -0.26879337360533    6.02972036983416
H         4.82856387104531   -1.33119927204781    5.94455495701169
C         3.58674896905579    0.33406913610732    6.74908324392325
H         2.82666844031041   -0.18921209433170    7.31172395248344

