181
CSD_code = QIJLUT | q = 0 | S = 0 | Stoichiometry = C72H100N4O2Si2Zn | MND = 6
Zn        3.84869242925836    6.97382907804695   15.96444637375850
Si        4.85109851243860    4.02656226382405   23.20755755319400
O         5.92724381843867    8.05963857228971   16.29301281218974
H         6.33903929320430    7.54285958096288   16.99387657828346
N         2.98869880118029    8.66424589684804   15.22837715975641
N         3.35771511137587    7.56479076615975   17.84615615949401
C         2.89857092527090    9.01431913192866   13.92523999471654
C         2.21092122502563   10.26785135001902   13.79207200326865
H         2.00829818866418   10.75870785173899   12.85996121821367
C         1.88975076424001   10.66437144171424   15.04671884594489
H         1.35470253041362   11.54490946299284   15.34411187284661
C         2.39314968670833    9.65560574430925   15.94115557118761
C         2.26172789403239    9.69661883274187   17.32984213663467
C         2.72004532457470    8.70954415405726   18.20326630790914
C         2.61785660742333    8.78435531022781   19.63749229829399
H         2.18104113787645    9.59609217615455   20.18570791861810
C         3.18700616771378    7.65762513574629   20.12705979962051
H         3.30167713955787    7.35131776219363   21.14904417707495
C         3.64465682545755    6.90666214156427   18.99106461148539
C         4.31071484097251    5.67711998531816   19.08635216051051
C         4.50491683264804    5.14919908736201   20.37914080424922
C         4.67729853669784    4.70608818739890   21.49444991400944
C         6.52640520747788    3.08776378331596   23.34789258724161
H         7.28122372404021    3.80123954935803   23.69519065615622
C         6.99607071243144    2.56437567226197   21.99303936415120
H         6.28427017663956    1.84880602671530   21.58790245178867
H         7.96068419598458    2.06611496561695   22.08746429029343
H         7.09831244248869    3.38081847485590   21.28251079943677
C         6.47764682146000    1.94484581644056   24.36055484797882
H         6.16561140333592    2.29863699802248   25.34052639936420
H         7.46065047239210    1.48509312915468   24.46350954685838
H         5.78068349617506    1.17458798893540   24.03807855020824
C         4.82495569464875    5.54777428773607   24.38131890968183
H         3.84977658446655    6.03404066419476   24.28100086983764
C         5.88287051547016    6.57014643147678   23.97674093468331
H         6.88166707410674    6.15136062495977   24.07812673350795
H         5.82360017344988    7.45659514127697   24.60750494589368
H         5.74606961960255    6.87328779205077   22.94150547095932
C         5.00378833338803    5.15831609360053   25.84596788587301
H         5.98253093652422    4.71027413273524   26.00526563828421
H         4.24284820733032    4.44541061461074   26.15694639715329
H         4.92921562268169    6.03539005428778   26.48890695471812
C         3.33128832043670    2.88781210767743   23.49758068032557
H         3.45001656312379    2.34645571311638   24.44176852326183
C         2.04360744571981    3.70290571311397   23.58722933751521
H         2.07436681042737    4.39274674453110   24.42677005385832
H         1.18350409350984    3.04692059429524   23.71893183320653
H         1.89657999333111    4.27801618607728   22.67563455575482
C         3.20414636191252    1.85547011800641   22.38029426720229
H         3.08967703491762    2.35282129838283   21.41974829776196
H         2.33526439063961    1.21799430836170   22.54242137104686
H         4.08424687962761    1.21938234077580   22.33033909657139
C         1.59568654156106   10.87735000768602   17.91905987057473
C         2.14690541933409   12.14138482790188   17.76136997896294
H         3.07208667352836   12.22956840897024   17.21157162624094
C         1.53215856504475   13.26242679503803   18.30288711684590
C         0.35334161451783   13.08521300009041   19.01783439746636
H        -0.13049224618578   13.94435870299461   19.44484627708454
C        -0.21940729694408   11.83141932122734   19.19734454883447
C         0.41537600250767   10.73226488001804   18.63440655763161
H        -0.00114989518762    9.74143930640412   18.73408805740096
C         2.16560079665252   14.62925199108626   18.08559299633275
C         1.37657148872050   15.76485708344540   18.74304851181018
H         0.37022876929168   15.83089843461845   18.33588450833804
H         1.87773708386656   16.71158073450312   18.55070769288455
H         1.31870732507527   15.62978619229727   19.82068555359798
C         3.58112105354445   14.62634947711129   18.67954005734259
H         3.54178866390208   14.39895492470424   19.74291960987019
H         4.04327853221544   15.60318385007052   18.55228976584922
H         4.21241364660267   13.88599322270908   18.19622312629514
C         2.23463307071238   14.90717013385614   16.57708728606961
H         2.83318215728911   14.16018109073337   16.06300889341442
H         2.67818619307161   15.88387581687870   16.39477263332883
H         1.23473107134848   14.89747035969876   16.14754761313754
C        -1.50425723669599   11.61865451066029   19.98498691239489
C        -2.08308113717184   12.91998532825735   20.54716819026584
H        -1.38383794104218   13.39873226163169   21.22896364427074
H        -2.99346461114574   12.70050369882945   21.10168262544093
H        -2.33685298537337   13.61379566180707   19.74894017348239
C        -1.21292840640167   10.67796490450760   21.16302081722348
H        -0.85435871030503    9.71152079773088   20.81985722360931
H        -2.11626750968489   10.51794736109031   21.74810626428914
H        -0.45489634271457   11.11240332757672   21.81200031337577
C        -2.55670542217880   10.98743047100047   19.06285618850292
H        -2.74414069346579   11.63464552581748   18.20838691988974
H        -3.49173005608462   10.84698954131612   19.60138068716335
H        -2.22905489207497   10.02049549855864   18.69184863869306
C         5.96860457400700    9.42582864359660   16.65059102499141
H         5.49143164628679    9.97540966003251   15.84248637199870
H         7.00312734251536    9.76733501494733   16.75784513503262
H         5.42320799574136    9.61845183170299   17.57858156823713
Si        2.85200903723313    9.91809707519507    8.71942917470780
N         4.70891936728941    5.28350848257459   16.70051319198384
N         4.33958196107681    6.38279628974314   14.08273081581803
C         4.79954767712295    4.93371865712260   18.00368222645059
C         5.48803149835990    3.68064553307561   18.13693906140917
H         5.69137423480466    3.19022218783411   19.06912713844584
C         5.80905557396001    3.28404200123643   16.88227820926177
H         6.34454361964060    2.40376518231988   16.58490089588140
C         5.30481594871894    4.29232612275321   15.98777504297820
C         5.43581006224915    4.25108415328231   14.59906181419391
C         4.97704201464558    5.23792826835257   13.72561206281301
C         5.07876649095661    5.16286019171622   12.29137144231363
H         5.51529737409869    4.35096512925295   11.74316208278276
C         4.50961363049826    6.28958607670911   11.80179461090512
H         4.39455137241387    6.59569237110713   10.77979399529827
C         4.05246824405340    7.04082961318698   12.93781162717653
C         3.38697391938477    8.27070157681137   12.84253924137935
C         3.19336154713604    8.79854241863422   11.54961751808398
C         3.02197124605808    9.24119594635076   10.43396865011526
C         1.19019546549708   10.88077900261280    8.58103071020706
H         0.42438115491704   10.17776705227548    8.23648247925063
C         0.73102811489988   11.41310301436759    9.93597987216775
H         1.45446399209880   12.11813509788847   10.33898445715169
H        -0.22602007687486   11.92594615186977    9.84262415676076
H         0.61748338759904   10.59914814372919   10.64763989945577
C         1.25334368514631   12.02115726233071    7.56631471515285
H         1.55830152575285   11.66123450998736    6.58634943535902
H         0.27684072800841   12.49480239941336    7.46449449818825
H         1.96193405485343   12.78186968868051    7.88607784588810
C         2.85199971823184    8.39335658301066    7.54996815172418
H         3.82062935061846    7.89365523394037    7.64758973018926
C         1.78149271419545    7.38714376852560    7.96184133358026
H         0.78830067472435    7.81984344102358    7.86390155035906
H         1.82531522489876    6.49841314337264    7.33303886925730
H         1.91872943504071    7.08464080720413    8.99720521483640
C         2.67254662022244    8.78137937502972    6.08501541221473
H         1.69965027275045    9.24295410765108    5.92857854039404
H         3.44228324629180    9.48248531323213    5.76889202140722
H         2.73186338948735    7.90159856131683    5.44420061826052
C         4.38747416040556   11.03348449871703    8.42123427431922
H         4.27370369772818   11.57385008777149    7.47587527720026
C         5.66268110893184   10.19921752221640    8.32986253654215
H         5.61906069994684    9.50755530356785    7.49239613074289
H         6.53194284849903   10.84205220555257    8.19356635124961
H         5.80413527692286    9.62458675057439    9.24264209875387
C         4.53344881946122   12.06695702431336    9.53516010465265
H         4.64404797442495   11.57063139482485   10.49668466357607
H         5.41088544511904   12.69134363884592    9.36824435200448
H         3.66280834424891   12.71582233532567    9.58639913704520
C         6.10207405393650    3.07047428317201   14.00986166563044
C         5.55137576029959    1.80626322458228   14.16795068311186
H         4.62639944185750    1.71783240241935   14.71805342580372
C         6.16637228553612    0.68535781113356   13.62643071861624
C         7.34493092866103    0.86288063734528   12.91113346892349
H         7.82896589367753    0.00383892613924   12.48414055544048
C         7.91717699841778    2.11685132656581   12.73125648689498
C         7.28212732079382    3.21587080254419   13.29415214828767
H         7.69824864177372    4.20683578184754   13.19417027923303
C         5.53347652923657   -0.68166334696320   13.84409486361346
C         6.32272935574262   -1.81708218739682   13.18658603327523
H         7.32920082721239   -1.88271823536054   13.59349632548293
H         5.82194401020627   -2.76395533186548   13.37918331296641
H         6.38026537614654   -1.68213511078868   12.10891610708722
C         4.11779694114574   -0.67935130924708   13.25052597827221
H         4.15676835467081   -0.45211282930957   12.18710015752108
H         3.65601326511507   -1.65632687250008   13.37805358924847
H         3.48637579858442    0.06086205571915   13.73389277904038
C         5.46494565867010   -0.95939580242017   15.35265652525983
H         4.86626210082449   -0.21255255227136   15.86678941229600
H         5.02179850717867   -1.93623822366246   15.53522866272238
H         6.46495911816139   -0.94926902173544   15.78192539103748
C         9.20177823968327    2.32994476752584   11.94330223496468
C         9.78090978478826    1.02873148760384   11.38116351221649
H         9.08166722526968    0.54965080014247   10.69960073414986
H        10.69108455662247    1.24844933702780   10.82640242820802
H        10.03511103208442    0.33511685473962   12.17942580640804
C         8.90989695326141    3.27039660352876   10.76521586873433
H         8.55105536085070    4.23675860785052   11.10832796672085
H         9.81307042527221    3.43065834454397   10.17994329116099
H         8.15189530841389    2.83561839653190   10.11642910198451
C        10.25420318332096    2.96163055194931   12.86514567964824
H        10.44201338129231    2.31458832839036   13.71966381004925
H        11.18907662848318    3.10230171280779   12.32642049362081
H         9.92631078887963    3.92850834290240   13.23609140012264
O         1.77016683044986    5.88810633411530   15.63591807490542
H         1.35836131375873    6.40475131726499   14.93496188317705
C         1.72875263473646    4.52184146942474   15.27862995430235
H         2.20605501781479    3.97243174918725   16.08677388755553
H         0.69421211893923    4.18031367036323   15.17160970444229
H         2.27400342892915    4.32902431905435   14.35059445795718

