63
CSD_code = QIJMOO | q = 0 | S = 0 | Stoichiometry = C28H30N2O2Pd | MND = 4
Pd        8.75993482370199   13.05483591327376    6.69610021310840
O         7.90423237756300   11.03084381479948    6.47172310166321
O        11.58885692340708    7.41771529531895    7.97235224441505
N        10.30088730559259   11.94280932331661    7.25949027914595
N         7.08063575341585   13.91040764585111    6.14308358086360
C        10.10667768623714   10.61852884007405    7.22300515357230
C         8.79817041959888   10.19763439709275    6.68894372282384
C         8.57201145508938    8.77204781195782    6.47363432652406
C         7.39661202347515    8.33622719212891    5.85870225314887
H         6.67162389004619    9.07309509288343    5.54393369774973
C         7.17468033892423    6.98872036946163    5.65536759525480
H         6.26563618640775    6.65692281842807    5.17553135558123
C         8.12115336981711    6.06199511304671    6.07080661276597
H         7.94667109676930    5.00757084154655    5.91369879241597
C         9.28542519463755    6.48532856464110    6.68720747515127
H        10.03289549000378    5.78234242805162    7.02420431988728
C         9.52673544297667    7.83704918232898    6.89283529687194
C        10.78864259679775    8.26615018072665    7.56876701568026
C        10.99544953412059    9.66401080427191    7.68758538367201
H        11.91230488235312    9.98454154432595    8.16120018906271
C         9.71603207555082   14.85372132663402    6.67580677161001
H        10.73496093259036   14.81150335318573    7.06464451720070
H         9.15162844524696   15.58543411236937    7.26574025351437
H         9.75334300903022   15.20885100319784    5.63700445400438
C         6.68696203861617   13.74313160114913    4.87851976942053
H         7.45561634739004   13.43846416836028    4.16936636191244
C         5.37952850583092   13.94958233751494    4.47579803426151
H         5.10173052663802   13.80284200963895    3.44392083955803
C         4.44075632765967   14.34556743855815    5.41752394200294
H         3.41323637810341   14.51580722488729    5.13514891390992
C         4.85360940469687   14.51688837317582    6.73072305139503
H         4.15712753627155   14.82160869870297    7.49580384722350
C         6.18044865525686   14.28959676418291    7.05127710153930
H         6.54510907798308   14.42137540550927    8.06740822957835
C        11.44549965866620   12.45752712157033    7.89427504093318
C        11.33076139940732   12.93459325062109    9.21003239848413
C        12.47159088250175   13.39668538595222    9.84733056120765
H        12.41633344266003   13.74653093003502   10.86610205781652
C        13.69167657241547   13.40891750201098    9.19532538710910
H        14.57401714460343   13.75658966540044    9.71226709632109
C        13.78023060240213   12.99667777431607    7.87938490742839
H        14.73236847052467   13.03886704867474    7.37239507458917
C        12.66310723398031   12.52511901539395    7.20619201716160
C        12.73701229350530   12.13767928589916    5.74714765002365
H        11.72371703579042   11.88415917987276    5.40837975740886
C        13.21690452415146   13.32503465438306    4.90827580353791
H        12.56603834540446   14.18216904572958    5.06680888078243
H        13.19923938166388   13.06657613899441    3.85155638178883
H        14.23250201375152   13.60732585471668    5.17364016100113
C        13.63930218690520   10.92134724629768    5.53663379424862
H        13.65810893178061   10.64575130590472    4.48413538561597
H        13.27536489430397   10.07063577813447    6.10747422282297
H        14.65687602683591   11.13882097608025    5.85276054890431
C         9.97996317708698   12.92338310182516    9.89570421876414
H         9.18914134383312   12.96820467407884    9.10655905453729
C         9.77377206681975   14.13286230345410   10.80796833877931
H        10.40346355007708   14.07327756088429   11.69209685639965
H         8.73821066754624   14.17267840483320   11.14033626397797
H        10.00294147130293   15.05210540061592   10.27395869502053
C         9.80613073554940   11.62023361891162   10.68153527979380
H         9.91102535636292   10.75749029048727   10.02731898834922
H         8.82416982871081   11.58405725953356   11.14950921856120
H        10.56380470967362   11.55084923477931   11.45973726215606

