94
CSD_code = QIJMUU | q = 0 | S = 0 | Stoichiometry = C49H40N2O2Pd | MND = 4
Pd        6.35523091639438    7.93389507446098    4.04746447908658
O         4.57434870970008    6.84693875614235    3.42897802343474
O         0.74178101582638   10.43979743737124    2.24776520299448
N         5.16558290615324    9.47059604432297    3.68994475076499
N         7.30700843819247    6.23958367290241    4.32003130955895
C         8.00006959481949    8.99596331275845    4.62553061142696
H         8.84825528872846    8.74939104248542    3.97353881107151
H         8.28503930459138    8.70922443361623    5.64629439227596
H         7.87122501088070   10.08159215633184    4.60811776806571
C         3.94055462196998    9.12021031562880    3.27535297237737
C         2.92920463246723   10.01196149642983    2.96047120766266
H         3.11409347864548   11.07309821774790    3.04509800677928
C         1.63471592876731    9.63325955206578    2.52516053797557
C         1.37837699053106    8.16918918183733    2.41041320124757
C         0.13217383892261    7.71938378573130    1.99363613975349
H        -0.62065962957667    8.45893422388500    1.76296896689841
C        -0.12806772869015    6.36560328740752    1.88062295173556
H        -1.10143211516442    6.02750896299057    1.55577557730844
C         0.86027489310363    5.43915437148173    2.18417420608360
H         0.65693395365256    4.38179476255446    2.09574645381606
C         2.10358756659736    5.87235483324158    2.59955764255924
H         2.88690364658865    5.16842230194690    2.84108670127203
C         2.37415548808660    7.23629356701114    2.71681614070592
C         3.69477957039482    7.67541296008920    3.16005008224367
C         5.42033006277319   10.84527297567963    3.80729006681314
C         5.16407164649313   11.50821033710506    5.01744525418694
C         5.18244828240561   12.89260557318227    5.03687415477216
H         4.94769729645837   13.41597104322987    5.95186478659455
C         5.49978966231634   13.62434781379659    3.90036043562423
C         5.93864318489802   12.94666595184587    2.77074645107786
H         6.29226846627311   13.51244678591500    1.92160848352914
C         5.93254695995838   11.56314664804959    2.71557767360329
C         6.64458912544663   10.78083107552828    1.61930783029526
H         7.48498729739279   10.30231460963791    2.15039913636921
C         5.82074790243412    9.65857678821965    1.04208460017633
C         4.55613065269129    9.87324843982423    0.50607444618290
H         4.12916508880910   10.86504985719063    0.51908390625775
C         3.82649816821905    8.81689893966123   -0.01385884781974
H         2.84037302438864    8.99639754825026   -0.41616685200619
C         4.34512646717219    7.53464492490812    0.00284933852917
H         3.76637617130818    6.71146650839693   -0.39050691892319
C         5.61090049237428    7.30873994298350    0.52290633486994
H         6.02192326501911    6.30764336855381    0.51801312099083
C         6.34578101489984    8.36383239399201    1.04087819261659
H         7.36654001465630    8.20547080529064    1.39589245211531
C         7.26360129393162   11.67706369722644    0.56863219314217
C         8.43753214653030   12.35169836807634    0.89491574319436
H         8.86777070359931   12.21845958054462    1.87792379096882
C         9.05047184781625   13.19348578854299   -0.01350477364089
H         9.95837198014921   13.71136819035002    0.26033036688613
C         8.50317394706486   13.36970699863534   -1.27362862422640
H         8.97984335292704   14.02579559807819   -1.98698561618603
C         7.34432191550655   12.69497410374818   -1.61207038475768
H         6.91307926596001   12.82116642692774   -2.59460117230851
C         6.72833862015273   11.85501422533757   -0.69881345507590
H         5.83006537192779   11.33146375757702   -0.98672301230062
C         5.42337405668811   15.12069896007964    3.90988313932922
H         6.15832688515019   15.55139189737699    3.23357141557199
H         5.58827221896921   15.51184218972698    4.91126704318436
H         4.43448647148416   15.44221689676753    3.58127165901999
C         5.08549463219407   10.66859550652850    6.28611659155253
H         6.08121318883081   10.19692933956650    6.34376253956592
C         4.09114275162121    9.53900643948103    6.20526291493032
C         4.52332237654131    8.23558585805718    6.46209751858689
H         5.55608542921732    8.07212481607559    6.77850331750298
C         3.63394966663659    7.17473009933764    6.39124523692362
H         3.96900999334262    6.16628210150723    6.59587874936499
C         2.30608370286994    7.40334811597534    6.06246755174967
H         1.61452145857057    6.57594188337127    5.99585337522584
C         1.86859946493817    8.69345909242980    5.82269772569544
H         0.83584436687904    8.87526246121382    5.56417115567937
C         2.75500679829351    9.75575039164740    5.88814873953163
H         2.41158539844081   10.75524360617282    5.66629955811452
C         4.94280478946128   11.50881921457047    7.53678405079267
C         3.75387553492523   11.64214062412745    8.23915853638684
H         2.86737621931788   11.12373665571324    7.90862741090654
C         3.69228667588074   12.42997258745070    9.37691451644996
H         2.75768178413593   12.52167924106315    9.91112344615296
C         4.81620386322129   13.09638813322149    9.83014731332744
H         4.76463669527465   13.71140387338784   10.71650918432751
C         6.01022395440456   12.96476076248187    9.14059922386816
H         6.89605020940545   13.47659987176806    9.48816456090318
C         6.07132624714271   12.17495457829603    8.00834497615318
H         7.00543290747272   12.07628739583039    7.47275169853596
C         7.08071570966538    5.53503461687390    5.43062605875046
H         6.65273227680393    6.07404389406951    6.27023186783558
C         7.38095904492920    4.18890319060805    5.53753155712367
H         7.17788706980445    3.66293323157607    6.45726295278813
C         7.94278574455436    3.53519794706013    4.45126015702569
H         8.18846400386587    2.48567125365681    4.50183238321673
C         8.18426366933547    4.26916197178027    3.29982342689109
H         8.62397221926613    3.80751174616054    2.42957968992383
C         7.85380412691632    5.61233569679205    3.27678392283608
H         8.04545737918051    6.21311104134544    2.39314959548255

