69
CSD_code = QIJREI | q = 0 | S = 0 | Stoichiometry = C26H34I2N2O4Zn | MND = 4
Zn       12.85498085534227    3.11255895413594    2.21606607143791
I        10.54750154229200    2.83802372367576    1.23244954640894
I        14.99850073166050    1.80726227236872    2.24378576109639
N        16.19907932934825    5.65128453156969    2.17316249550310
H        15.49329634970821    4.93248738590141    1.96918398847823
N         9.73486864465985    4.03363777899655    4.88876096268626
H        10.43113153415353    3.50240818301564    4.34503159545040
O        13.64852508822962    4.99297676233722    1.87066963956857
O        10.39254195461777    8.28456314512332    2.97368576387636
O        12.22652208781890    3.63006649955945    4.13767471392476
O        15.58046441229255    6.52696376747244    5.56729903819579
C        14.36402199465583    7.14998344800331    2.52716544396282
C        13.34076224448567    6.17208548416815    2.23688626848477
C        11.99272635282170    6.57698890479443    2.37684295412079
H        11.23629382173855    5.84446989356175    2.14630901351964
C        11.65480923215185    7.83925825834948    2.79459365308062
C        12.66730889441155    8.79236588616887    3.07408656910002
H        12.36298133174573    9.77659193334827    3.38986783271383
C        13.97258619904644    8.44950892440619    2.92893226881317
H        14.74966961885057    9.17432581122756    3.12905086501925
C         9.32067127433692    7.41542576776628    2.68405233732921
H         9.33513816879289    7.09372568224929    1.63919765910775
H         8.41503287571414    7.98894228741670    2.87312786216496
H         9.33804365301131    6.53598416152546    3.33430964900782
C        15.72218434726767    6.82700717628488    2.47696859852392
H        16.44394416360682    7.60347080868028    2.71563265847706
C        17.58531920174625    5.28093630113330    2.20420288502673
H        18.17654202890906    6.20357866578317    2.22160327826738
C        17.93507156577366    4.42947924788089    3.43472691168640
H        18.07076125360386    5.03395544758210    4.32994302218554
H        17.14105798723818    3.70579870293248    3.61280323769297
C        19.19067660367140    3.69343948184857    2.98795559066109
H        20.04478098143602    4.37358538826185    2.98523745133598
H        19.42204549532009    2.84558350106808    3.62809792148554
C        18.83946745596276    3.26288577980979    1.56409711641292
H        18.25030452167585    2.34759364654146    1.60135948372771
H        19.72482533281568    3.07825583786953    0.95936016169151
C        17.98322729154583    4.40733650873122    0.99852437105955
H        18.53084500192202    4.99685016377649    0.26439501307202
H        17.09319213253421    4.01139137033558    0.51245350593362
C        11.56366768931571    5.44380380789662    5.50951963925980
C        12.56009786442196    4.64718538041440    4.82496989952936
C        13.90319254248488    5.05522212921691    4.95319614081341
H        14.67486016664919    4.45722788450592    4.49452222885976
C        14.26191282523412    6.21792191734586    5.59489025966738
C        13.27485089684435    7.01522696131188    6.21851226545408
H        13.54187019275348    7.92741126096306    6.72539944868871
C        11.97364486030727    6.61444751167976    6.18465783534645
H        11.21646244815000    7.21027645442349    6.67438286087024
C        16.02131259858927    7.71334969694969    6.18626097694734
H        15.55435716366388    8.59583691960269    5.73831632767298
H        17.09711449213033    7.74860268821812    6.02042734193591
H        15.82593694908461    7.70285346985490    7.26251751824028
C        10.21755587544321    5.06740784810115    5.52464541371841
H         9.52017270568218    5.66149735510583    6.11034732641465
C         8.37412468633208    3.57415952990422    4.93033879882904
H         7.89651147220340    4.02192372648826    5.80903905198004
C         7.57689805400794    3.94465972357295    3.65492650042361
H         6.85339118658880    4.72766097695935    3.87793086271078
H         8.24541619995797    4.31150375261462    2.87894072168246
C         6.88783086978316    2.65350220047752    3.19319607132607
H         7.45063179610771    2.21741824952544    2.36879152902639
H         5.86986492653282    2.83406704976757    2.85551585774581
C         6.94359704779373    1.72328982231469    4.40297474981278
H         6.15015990138544    1.96701237400008    5.11190405996566
H         6.85122238779942    0.67586271546956    4.12579914126378
C         8.30355546769565    2.04537051302634    5.00964466945125
H         9.08758872809240    1.61841144616853    4.38363199759890
H         8.42349444750925    1.67624915734954    6.02704734492469

