116
CSD_code = QIJWUE | q = 0 | S = 0 | Stoichiometry = C52H56N4O2PtS | MND = 4
Pt       10.08113791679433   11.74672654683152    1.96177126178766
S         6.18325604388352    6.50048437556880    1.29726270160129
O        11.88924427819565   12.86343074923250    1.91825350980098
O         9.34566559207273   13.17946655035919    3.17320625070173
N        10.67793445463930   10.33325645524627    0.74791544055047
N         5.60138602444299    7.68177989837756    2.22000463038844
N         7.49708308167183    7.26415323417010    0.75740130541975
N         1.82557971657359   10.89974995067018    6.22877750759336
C        11.92882792607141   10.32911363981201    0.24988712649349
H        12.59414946050724   11.08223728701960    0.64872077602631
C        12.34793431362547    9.42584702245485   -0.68008548619296
H        13.37158196308622    9.41525779719527   -1.01978867320838
C        11.40679653984512    8.53928911524766   -1.24869784215203
C        11.74955491836153    7.67571335441561   -2.30526078703225
H        12.77761195632457    7.64905612498445   -2.63659086092412
C        10.79499660470692    6.90861577390694   -2.91506363566413
H        11.06099663972957    6.24651740206823   -3.72588493758271
C         9.45904059381805    7.00838195431863   -2.50780396646303
H         8.70202688019469    6.44144394097454   -3.02867543262815
C         9.10282357635485    7.82126827699892   -1.46460705630948
H         8.06999016485518    7.89922588775527   -1.17990439890471
C        10.06863226861180    8.57175146918303   -0.76699304253687
C         9.76862620274644    9.42183780516628    0.34226068505756
C         8.55612281763302    9.47246705892017    1.13525311034001
C         8.47002944656287   10.60621359078820    1.96635579814131
C         7.35068353590145   10.81952533992569    2.78583594081206
H         7.31416734892737   11.74175558448174    3.34625205585648
C         6.29698218252959    9.93429557820948    2.89440471561446
C         6.41889564349468    8.72863893740933    2.15589294665825
C         7.54487271839463    8.48894572092503    1.27964925000609
C         5.14359339221416   10.18986017532530    3.74827621905514
C         5.27475703796109   10.91895804835826    4.93313209781502
H         6.24899483660245   11.26973888056316    5.23738128130589
C         4.19205791401090   11.15229195575134    5.75055381150378
H         4.32130048881373   11.69177835862763    6.67747770186212
C         2.92423628747801   10.67806124672957    5.40348730667595
C         2.78478663325281    9.96337733886504    4.21074553642117
H         1.80831906896517    9.60588535129315    3.91888922636466
C         3.87443050053104    9.71675458800294    3.40753875486656
H         3.74496531835772    9.16415874849328    2.49096425909605
C         1.72890883135657   12.06713979473017    6.99492201463186
C         2.16517026879392   13.29324275699931    6.49608700935737
H         2.58472421228137   13.34521448579580    5.50199433434078
C         2.05697750796121   14.43566472737689    7.26077672273751
H         2.40413941781093   15.36555468801038    6.83589006098130
C         1.50745408180472   14.41526768415553    8.54131374841092
C         1.07141711285285   13.18775594330392    9.02592385809323
H         0.64104584131559   13.10681709407152   10.01065271596116
C         1.18129488437152   12.03349278415036    8.27408862540512
H         0.84049820463525   11.09272414402499    8.68158912983257
C         1.40736678894298   15.70642140873691    9.33766696818642
C         2.81545927295123   16.28704339318280    9.53017862650738
H         3.44529941798027   15.57611358124492   10.06111707088225
H         2.76631929010289   17.20589626632313   10.11086801766284
H         3.28478453248411   16.51181875340774    8.57648351436258
C         0.53452279210637   16.70565439557091    8.56496600098327
H         0.96566719150610   16.94195729318584    7.59616843613390
H         0.43501208265183   17.63105396082605    9.12855908838383
H        -0.45850724834561   16.29096953155087    8.40413101657653
C         0.78412024959973   15.49938349240503   10.72076781113522
H        -0.22874167161697   15.11172000951728   10.63970419790691
H         0.73763869431875   16.45256551098426   11.24381952631781
H         1.38083164314536   14.81621798038529   11.32078467014641
C         0.80187130039608    9.94490913351068    6.30421636934807
C         1.09090971173289    8.58378948519145    6.30150722102178
H         2.11951944590555    8.25834589595314    6.24691683574423
C         0.07619583277884    7.64783922947845    6.36713370833461
H         0.35272994447771    6.60631221139475    6.36133290081787
C        -1.25866894801248    8.02687438625152    6.44748862202480
C        -1.53411079456910    9.39288221380614    6.46053502261404
H        -2.55524653906630    9.73845411893461    6.52003575929402
C        -0.53230021039300   10.33754542572775    6.38703808130572
H        -0.77856903368698   11.38952943175379    6.38940402232988
C        -2.40348358986951    7.02925079041872    6.51831187583514
C        -1.92196400208893    5.57618396846644    6.48924624984828
H        -1.38057933085214    5.36169342097575    5.57080803882266
H        -2.78047374822585    4.90910456504770    6.53653951003419
H        -1.28096565960471    5.35885617206590    7.34051677356726
C        -3.33304353226017    7.24835649853441    5.31609582933995
H        -3.75293963547961    8.25036853514837    5.31672009072951
H        -4.15417746573515    6.53497928784243    5.34189217042904
H        -2.78396450814627    7.10952584284997    4.38703707021548
C        -3.18096980519518    7.24979617234800    7.82363968542143
H        -2.52304773532422    7.11518025903943    8.67983835174119
H        -3.99721792251125    6.53438650663772    7.89958325797478
H        -3.60048362653791    8.25089477360050    7.87067951538116
C        12.11671504741476   13.95735296727081    2.49388714658594
C        11.20967372896426   14.65211646513351    3.30108804895609
H        11.53811912679727   15.58228474760633    3.73049808542251
C         9.91387386214387   14.23071898114022    3.59288795073983
C        13.51101129528747   14.57315566127238    2.28429004509283
C        14.35146070171681   13.64769480674817    1.40062275161934
H        14.47124434933216   12.67555049640019    1.87397364094523
H        15.33717075772955   14.07875205528132    1.23916056801269
H        13.87220253021909   13.50452127516903    0.43460911648331
C        14.21029582179945   14.74111080679400    3.63764427448078
H        13.68146375728627   15.44348644290372    4.27623369147514
H        15.22155796855446   15.11407121503776    3.48642913356426
H        14.26943475338226   13.78605720272149    4.15552989338105
C        13.36338673737734   15.93088091865143    1.58835330420442
H        12.83647551408929   15.81715579036796    0.64316584516828
H        14.34654112017497   16.35164144744220    1.38630057817172
H        12.81116887048630   16.63556181829641    2.20439953324407
C         9.05970976569187   15.12132129276972    4.51418002621323
C         8.82883868936686   16.47282117062137    3.82883202608265
H         9.76560446274534   16.99611332331576    3.65634166436352
H         8.19603863394725   17.10073154118858    4.45302324780637
H         8.33492657255047   16.32985999200803    2.87021258211028
C         9.77453545469655   15.31874459420252    5.85552191450779
H         9.99623684984844   14.35611121886033    6.31107488801875
H         9.13574825375415   15.88160370984843    6.53334263126123
H        10.70665245917562   15.86429614574256    5.73776361796062
C         7.70667960807162   14.45279475763450    4.76932915839604
H         7.17874826060439   14.28842630726055    3.83327568104308
H         7.09359766600459   15.08292510111201    5.40995120084736
H         7.84739154527356   13.49227862765432    5.25891253855852

