77
CSD_code = QIJYUG | q = 0 | S = 0 | Stoichiometry = C32H36N2O6Zn | MND = 6
C        10.75344917287661    2.25584630533852    9.57843118864779
C        11.74546664952788    2.43520743303301    8.45838055313534
C        12.99088518058714    3.00106513605039    8.72934630299138
C        13.33856771886244    3.41542123953856   10.12851328967062
H        12.58425953019947    4.10031825705866   10.51243098625744
H        14.31060423469733    3.90219698418879   10.16077756045905
H        13.35882750404110    2.54453094867754   10.78494685023044
C        13.89681587786688    3.15727281198244    7.69261560968842
H        14.86559676305776    3.59330510261503    7.89508333103017
C        13.58597488449371    2.76709233765497    6.39648006592744
C        14.58327104369412    2.96112628148773    5.29315713321207
H        14.23192170100998    2.51380565892780    4.36673623921266
H        15.53893030406502    2.51125035140942    5.55846714143463
H        14.75245853213656    4.02388904228282    5.12097018188959
C        12.34256410592886    2.20617763541278    6.14998279554242
H        12.08793647866139    1.89791731793618    5.14505021605802
C        11.41510746398401    2.03008088876471    7.16744276024293
C        10.06744116732306    1.43512933208676    6.88479609682776
H         9.84476360559765    0.64680606892694    7.60165581613513
H        10.02547885807567    1.02620961593340    5.87773741790558
H         9.29527402137016    2.19844321249505    6.98413418574363
C         6.99560964543276   -0.19444080966874   10.20447872829153
H         6.67904102889690    0.71218025774152   10.69968824130832
C         6.14346619806478   -0.92665235390059    9.39755871401712
H         5.12556594755174   -0.60543527355015    9.24482643476967
C         6.62926489969140   -2.07993874790916    8.79740751868300
H         5.99355068563052   -2.68005195939162    8.16345599675463
C         7.94056301162327   -2.45220719972937    9.03027228566208
H         8.35442925352817   -3.34424883593720    8.58619599117861
C         8.72773802281362   -1.66039206201902    9.86003368036807
C        10.16769908855427   -1.99478574192144   10.15602854252243
H        10.30634646016510   -3.08423949218073   10.13664026735880
H        10.78511786272032   -1.54233347207121    9.36966700339030
N         8.25098350639557   -0.55810201853008   10.42376030115045
O        10.20739611579089    3.26541300933948   10.05887263620918
O        10.54759214586288    1.07016556649689    9.95135230299507
O        10.61199186339738   -1.46499872016845   11.37378071025949
Zn        9.62471765641360    0.42917098799849   11.59774368791649
H        10.07016260389148   -1.93967492486515   12.11088198522060
C         8.49436811555109   -1.39731883948768   13.61601438946238
C         7.50087678322842   -1.57648887141585   14.73480482329231
C         6.25531094515081   -2.14112428257103   14.46196248962003
C         5.90906534152519   -2.55451447412854   13.06215632555973
H         6.66329260144061   -3.23985176732615   12.67885666021087
H         4.93666847208225   -3.04047020066690   13.02842885087351
H         5.89035316108328   -1.68328106835585   12.40613267367992
C         5.34787854762220   -2.29700028071239   15.49743013554741
H         4.37896298360967   -2.73204185475712   15.29347775418485
C         5.65734351086178   -1.90765287365196   16.79414414643618
C         4.65840620801244   -2.10125115199191   17.89605918123374
H         5.00867080824727   -1.65414937791023   18.82299749528750
H         3.70332743514127   -1.65092091470491   17.62943707808122
H         4.48848648541505   -3.16394549060896   18.06796060814585
C         6.90093337884956   -1.34796816577094   17.04252374380649
H         7.15451201727569   -1.04037983728028   18.04792929310386
C         7.82989115730788   -1.17225427675583   16.02636482146996
C         9.17772143596980   -0.57866928606240   16.31106877360396
H         9.40206147489697    0.20976467218685   15.59485305877546
H         9.21872104552348   -0.17024080891323   17.31836701825021
H         9.94932196405054   -1.34264367999672   16.21240896879948
C        12.25505496387545    1.05320222618177   12.98825740898996
H        12.57101411264439    0.14616419427534   12.49342471735719
C        13.10829545913632    1.78631485869829   13.79320050108679
H        14.12650907217819    1.46546549390383   13.94461558507552
C        12.62316023594760    2.93999664183925   14.39312336268604
H        13.25975954568638    3.54085774943527   15.02547888168350
C        11.31143955188978    3.31182444380230   14.16190896034439
H        10.89811462143715    4.20422923057597   14.60575993604450
C        10.52316983844071    2.51915031684558   13.33401426719569
C         9.08278251910862    2.85308462518044   13.03955904777072
H         8.94376466206858    3.94248265590939   13.05916626291802
H         8.46628024169221    2.40031422641175   13.82645099248050
N        10.99927137328690    1.41640567168295   12.77061556195088
O         9.04030877032779   -2.40699382231247   13.13569099723259
O         8.70143966456712   -0.21158883287075   13.24389151873993
O         8.63750471207941    2.32323737651915   11.82217519678186
H         9.17862598830571    2.79803560327234   11.08460776193581

