66
CSD_code = QIJZAN | q = 0 | S = 0 | Stoichiometry = C27H31NO6Zn | MND = 5
C        13.88952260191765    5.35060017194783    8.19980552929609
H        13.65108136333837    4.68878567396189    9.04093850428465
H        13.80570345277911    6.39709235457084    8.52600063676404
C        15.30051634208658    5.05161156204549    7.77636021548145
C        16.38148246332874    5.81719325006495    8.19512082518424
H        16.22792519360149    6.65744973041938    8.85347732913647
C        17.64787990703406    5.48192630145104    7.74667606734157
H        18.50746629225336    6.06042677634588    8.05012070573887
C        17.79556169775296    4.39381604424669    6.90318016325094
H        18.76603118952114    4.10335673818517    6.53321003433369
C        16.66551842597510    3.67143544311191    6.54109354196995
C        16.73273170753922    2.46786628684515    5.64295716697201
H        16.47702847198393    2.79868386478835    4.62934851180433
H        17.75035958747449    2.05184381962849    5.64274186017697
C        12.73033496456871    1.28698560822598    7.75951189323836
C        11.94421185334433    0.32683495066389    8.59510667835689
C        10.57226839042671    0.20533571905337    8.41069611429651
C         9.83972554356988    1.04447388482027    7.40680346514741
H        10.52881114515164    1.57057002284719    6.75167577686920
H         9.22185277747313    1.78276581850963    7.91930829916640
H         9.18252461756793    0.42134326444965    6.80186076487884
C         9.87455182416977   -0.70657629347416    9.19573958971802
H         8.80670445824370   -0.80569718391767    9.05712031301811
C        10.51676551916611   -1.48601158799265   10.14279241352859
C         9.75953238982171   -2.47832438470337   10.97444281755328
H         8.68690499935695   -2.35311988967429   10.84995845854400
H        10.00658410333339   -2.36257780848298   12.02845252083535
H        10.02380491315683   -3.49402309735117   10.68009951545191
C        11.89039659357115   -1.34482254536211   10.30584986143955
H        12.40087633398031   -1.95092427320396   11.04160529910824
C        12.61591176083386   -0.44605798269042    9.54276408663840
C        14.09590824923332   -0.28615509867238    9.71348767318036
H        14.60056986687482   -0.41324556948300    8.75666004411708
H        14.48856884705118   -1.00935257190237   10.42468716887844
H        14.32227811643910    0.71882396544485   10.06906501389321
C        12.74879701674163    3.07724314476338    4.26893952562399
C        12.10838049048051    3.04679725129889    2.91882187937270
C        12.32102061680693    4.10605331660195    2.03733173237205
C        13.17030608284104    5.26755983619883    2.45582481222101
H        13.22191058092104    6.01725510907296    1.66946202226179
H        14.17740124516542    4.92594479054290    2.69002412916715
H        12.76395042459189    5.72427604935508    3.35779349046357
C        11.72309142523594    4.06635724244452    0.78744139215173
H        11.87873473004942    4.88683973463775    0.10053558198869
C        10.93002635921007    2.99444454311428    0.40146073322232
C        10.30937142900258    2.94917484041636   -0.96311140510163
H        10.24814724639576    3.94459355173888   -1.39616674718051
H         9.31007204859706    2.52137062894973   -0.91846626277987
H        10.91084887388540    2.32630242315656   -1.62602832285941
C        10.73608138030931    1.95242908603572    1.29571702877070
H        10.11941712898884    1.11278395645497    1.00590474983556
C        11.31200341843915    1.96226742851532    2.55930302622309
C        11.05826616739651    0.83298893061441    3.51108866158955
H        11.85846049999699    0.73662368573664    4.24072483503209
H        10.94837122112944   -0.10680848996098    2.97328031053234
H        10.13458948565125    1.02154786793262    4.05865588849098
N        15.45891206519376    4.00883917429368    6.97367798551936
O        13.02769427644313    5.11484743747766    7.11263810954760
O        15.81847591991787    1.50294967161347    6.10423007204994
O        13.12705715439560    0.93816179118327    6.63076855303718
O        12.98105020512729    2.43253407017982    8.20830314663386
O        13.99644972946775    2.94567916083158    4.35747443508319
O        12.04770540165618    3.22284941149010    5.28814343373047
Zn       13.76424024322579    2.87799219987058    6.37660226435540
H        12.19370133209860    4.74878612961846    7.42634959814384
H        15.41716983672586    1.04548306110135    5.35765648089143

