82
CSD_code = QIKFUO | q = 0 | S = 0 | Stoichiometry = C34H42N4OTi | MND = 4
Ti        8.39912646983145    0.58173593415011    3.84310618409305
O        11.09659458781623    0.38954714895799    0.42557014036291
N         8.45876701572836    1.01248265286650    5.62924730982254
N         7.68688874384659   -1.10251831674242    3.59629044273984
N         7.35476324182602    1.97394065190182    3.03732281476178
N        10.15140234507036    0.94954104808303    3.18663665272191
C         8.03781402177693    3.33002104543781    6.47047800135692
C         9.05002092787302    2.29348078948647    5.95434400167172
C         7.99984100451968    0.26342686576534    6.78025472044474
C         8.55428090167090   -1.16633609194434    6.79791342508447
C         5.34321106647841   -0.94157826263390    2.74723480880605
C         6.28753917013469   -1.28562124701761    3.91005083493471
C         8.23867014664493   -2.18631894226267    2.80980078754534
C         9.75468992853260   -2.29757215921102    2.97062109646339
C         6.24145795478220    2.65632316200576    3.43966337132572
C         5.35032876640411    2.36365653724426    4.47184971586450
C         4.28377986241645    3.21411633736595    4.66977223166122
C         4.09474413550305    4.34110517822972    3.86347496043527
C         4.96807155974450    4.64616993723048    2.84383450016663
C         6.05692281506636    3.80526802541627    2.61755065159003
C         7.13562163300951    3.79628554250385    1.68176354215049
C         7.38127430000736    4.79126139447127    0.59513367984638
C         7.88177619561259    2.67883959743915    1.97655262814182
C         9.10274010851218    2.14334344382871    1.27469998475378
C        10.22089932706491    1.97894708885272    2.27115802696308
C        11.37439325666591    2.71419098774791    2.40822923218825
C        11.79875868326435    3.88910136996119    1.58973307671759
C        12.09955030865571    2.11081112612008    3.48245235482213
C        13.32166191721775    2.36335748500477    4.10325812425621
C        13.71749204625837    1.55191702098025    5.14394340161138
C        12.92224089449551    0.48899361009161    5.58217358178886
C        11.70934902695066    0.21175446315233    4.98640661505786
C        11.29601544263559    1.02648696816891    3.93632879670795
C         8.78765659960144    0.82960203350567    0.57145924681650
C         9.82867781887946   -0.01779069850037    0.14365107867054
C         9.52933659448111   -1.18186889297235   -0.55494698519330
C         8.21547569191168   -1.50284696392488   -0.85548333334575
C         7.18995401496555   -0.66601139295325   -0.46194613440343
C         7.48262116946962    0.48939244861707    0.24773698293007
C        12.17690282975340   -0.45730873418345    0.12670501560685
H         8.55143478665225    4.25958746003059    6.70519724200367
H         7.54113378528380    2.97321781850106    7.37081259317418
H         7.28272822023816    3.52707775972197    5.71120274695269
H         9.52609737168533    2.71061437628770    5.05330799026581
H         9.83841950184930    2.16264590574970    6.71917540574049
H         6.89506988280416    0.21091760081115    6.80031537719806
H         8.31491720239287    0.76653461634994    7.70592561686050
H         9.62544125014978   -1.14665824746780    6.99333002250889
H         8.37203524061530   -1.63662767156962    5.82856917983541
H         8.07188554038832   -1.74912733203655    7.58054683958515
H         4.30788655324232   -1.08329093318214    3.05053676362848
H         5.54671704700304   -1.58130903849696    1.89080539448587
H         5.48671688883104    0.09953232119154    2.45723330846078
H         6.10095407778839   -2.33394022954340    4.21210558921404
H         6.03471729249921   -0.64154021965762    4.76506246338408
H         8.00559473228727   -2.06330099886985    1.73609233308249
H         7.78347355372560   -3.14163811080199    3.13212440576040
H        10.13315093892137   -3.10276192750323    2.34248768808525
H        10.00971979518567   -2.51919827558634    4.00787952560504
H        10.23323155607239   -1.36038734147361    2.67910532561466
H         5.50625708612457    1.49399966072113    5.10221923966770
H         3.57759154948796    3.01123429812845    5.46236103505978
H         3.24483642709650    4.98152668486633    4.05095286705794
H         4.81134830317944    5.52069912278443    2.22848040578460
H         7.13649734392613    4.37192874004405   -0.38269500308744
H         8.42616921319494    5.10030822560739    0.57716086453092
H         6.76481827748961    5.67288484699111    0.75146253690223
H         9.42307008742600    2.86674715896959    0.51467681438802
H        11.83403332140601    3.62943571967437    0.53104004478434
H        12.78780709763558    4.21998123642995    1.89570272651554
H        11.10502725781447    4.72248361305878    1.71264481485207
H        13.94903388714297    3.18011367435145    3.77487852828574
H        14.66311618849102    1.73435805186364    5.63457817050981
H        13.27207968900486   -0.12613288149659    6.39945966572144
H        11.08755255218890   -0.61623217705564    5.31019932926251
H        10.31798396712041   -1.83992438056441   -0.88446654115356
H         8.00353994127761   -2.40677162930189   -1.40758003022274
H         6.16619366577963   -0.90101068574781   -0.71190406926271
H         6.67900451332518    1.16005015797683    0.51959927624163
H        12.07635572487621   -1.43062967043779    0.61780279377332
H        13.05730299443262    0.05045312476964    0.51817702461686
H        12.29144316888173   -0.60197861632780   -0.95319187358815

