107
CSD_code = QIKFEX | q = 0 | S = 0 | Stoichiometry = C44H54N4O3SZn | MND = 5
C         3.85939094896620    2.65708630320405    3.48282437153619
C         3.57944537951241    3.39510231762552    2.28012333449661
C         4.41592321947204    3.25565547386153    1.20395204003476
H         4.18800273275479    3.79540331446222    0.30088490378596
C         5.57496501806715    2.45346567676560    1.19669792826882
C         5.88972310183617    1.80670104088805    2.35700005408308
H         6.78018102414407    1.20306383473249    2.43801953214421
C         5.06706512099208    1.88795385479937    3.50361576568448
C         5.52633190124571    1.22391021070296    4.65945419693107
H         6.50536521558741    0.74459121110609    4.56397944641883
C         2.38146521102407    4.33716519119463    2.23348296377835
C         2.55629849638520    5.39092145538136    3.33440282309553
H         1.70465824614043    6.06746211734615    3.34626231838238
H         3.45948252553896    5.97178377492471    3.15771956848077
H         2.63578259122616    4.91477923991756    4.30567223078121
C         1.08927588129190    3.54596642020310    2.47110964240876
H         1.11619418134129    3.09914202910667    3.45763008797373
H         0.98042194297111    2.76009969960188    1.72511528554002
H         0.22629698771550    4.20597188446185    2.41178482199189
C         2.24156398507037    5.07018138487625    0.89484582030613
H         2.07579083781937    4.37420638102092    0.07488610053136
H         3.11911452190433    5.67631903725580    0.68191111394095
H         1.38230059611236    5.73632884302689    0.94496444043804
C         6.40902296171393    2.37323068581965   -0.07181713582573
C         7.62424943957534    1.45572601358973    0.08762237236257
H         7.31800638481191    0.44246459178630    0.33710278852686
H         8.29411453732655    1.82615617616477    0.85991162866521
H         8.17818048386252    1.41946670271310   -0.84834666149186
C         6.91351783718102    3.77653884199024   -0.43574120295094
H         7.53615239286932    3.73215661535244   -1.32699427858672
H         7.50604312337767    4.18489096304793    0.38019688551552
H         6.08952330434697    4.45707992918731   -0.63125436703509
C         5.54006313481164    1.82108769211555   -1.21066166087116
H         5.16485143737454    0.83327272427866   -0.95096265627743
H         6.12590072734275    1.73903856449953   -2.12388330817298
H         4.68931209643840    2.46661150761799   -1.41040131402978
C         5.44539666331605    0.47329881634583    6.87080292887036
C         6.29947334925007   -0.59250893363642    6.74104533270688
H         6.59521399561612   -0.97283441066664    5.77546998310501
C         6.81732523071543   -1.25374322468730    7.87473737605239
C         6.44264295639421   -0.78661881275841    9.18233922420609
C         5.52023027244510    0.27474429274023    9.29441718090886
H         5.25829317690409    0.57797055213672   10.29569614973213
C         4.98988919148483    0.87990029244798    8.18157226481677
C         8.13657963065232   -2.84875066967200    8.82218769292170
C         9.02930362259949   -3.94087877574422    8.71104572863141
H         9.28613067615603   -4.28349328287338    7.72048661315086
C         9.53704094422228   -4.52481018128218    9.83283321547207
H        10.21936420403378   -5.35840532672176    9.75055378727676
C         9.18491360280154   -4.05481976392277   11.11616076321787
H         9.60687050627300   -4.54012983808914   11.98427955649151
C         8.32697106640273   -3.00668152422495   11.26560484815173
H         8.04380328223298   -2.63195538604440   12.23711545404957
C         7.77619366725641   -2.37287108597220   10.12645861988765
C         3.38108435000834    2.21563364898973    9.24734977810968
H         3.56786899741654    1.67917395631998   10.18121192710959
C         2.40689323854622    3.23047983264649    9.33095521962441
C         1.84171013150374    3.45989251757396   10.60698585767401
H         2.19245429661993    2.83596073227875   11.41428633991252
C         0.90653902450536    4.43120111586849   10.81977757468191
C         0.53846680328716    5.22276088321757    9.71208711609539
H        -0.17577498817741    6.00918937636149    9.88694627768206
C         1.03412213483366    5.05497672920014    8.44645719265558
C         1.98335117255329    4.00105736702667    8.19992369799297
C         0.27017814176179    4.71394102130065   12.17151530739421
C         0.77006742440901    3.76217318619116   13.26162395086515
H         0.54451722460450    2.72843056119260   13.01032140682762
H         0.27657928188935    3.99571768975037   14.20304923490155
H         1.84214705051822    3.86734733651365   13.40947293381319
C        -1.25204227388320    4.55105500017951   12.05723013288302
H        -1.67325640952462    5.24556871040401   11.33572082432670
H        -1.72273090636968    4.73548772950446   13.02081842819573
H        -1.49793035022227    3.53950241772063   11.74059268910129
C         0.60895138221371    6.14916787975297   12.59807700145568
H         1.68774133970879    6.27843402384261   12.65320100575444
H         0.18465236255647    6.36022573893843   13.57763271889397
H         0.21511484607953    6.87657981997639   11.89375663469460
C         0.63633373437386    5.98788214953192    7.30793602321015
C         0.00848187397922    5.17855581190920    6.16671137725950
H         0.72980896167058    4.46624346528705    5.78418868670322
H        -0.29046229585303    5.84162705510112    5.35760654700109
H        -0.87211962855164    4.64537551950949    6.52197449250271
C         1.90022231956976    6.70209273793898    6.81008739684421
H         2.33282007609169    7.29957964348065    7.61050118093187
H         1.65979338745873    7.35864345093692    5.97663244794904
H         2.63758880000740    5.97777314356640    6.48068569866399
C        -0.37427643473620    7.05956608294313    7.73211043054222
H        -1.30497296185233    6.61351057280811    8.07714184590752
H        -0.60387386982290    7.68835573028641    6.87392099829219
H         0.02963279720840    7.69986104185012    8.51308461999868
N         4.92123771983359    1.17669716298341    5.80747026443043
N         4.04924360631465    1.88597066954161    8.18200485629803
N         7.64973332123656   -2.27799835502832    7.71799612541568
N         6.93246714524633   -1.35079053882168   10.28238579357922
O         3.04909633209210    2.67551693396849    4.47939331564139
O         2.42074163959284    3.77624761463757    7.01625636732241
Zn        3.33493242227302    2.26320443709961    6.35092066308573
O         2.00271613991739    0.77825796407658    6.60982265821319
S         0.84003540080548    0.12954942666425    5.95274466085438
C        -0.35795067891758    1.48187694363130    5.67637182323791
H        -0.74637928948415    1.78018878274725    6.64512004065965
H        -1.16402081441473    1.13150289965693    5.04239984026932
H         0.16649968384454    2.31697043525058    5.22487161122949
C         1.32334064999164   -0.07571126272200    4.19955614341127
H         1.77079518851672    0.85150535482298    3.85775496408978
H         0.44995308709817   -0.33533117443087    3.61299713662315
H         2.05556384485186   -0.87537541578261    4.14924213884784

