53
CSD_code = QIKGUO | q = 0 | S = 0 | Stoichiometry = C28H18N2O4Pd | MND = 4
Pd       10.19092614638128    3.93261232140497   12.49918530556747
N        10.28652145907052    5.84508358698214   12.79783810987779
C        10.24784031449721    6.41412304855216   13.97930303458934
H        10.26679664392345    7.50185323899012   14.02550120287727
C        10.14548702491076    4.37433165957226   15.44624828305420
C        10.18762550151027    5.78905395415847   15.23945057349241
C        10.17251227720070    6.65169393206441   16.37786667737791
H        10.19636253376781    7.71770624195350   16.19910566545489
C        10.13287829109349    6.17845930716670   17.64102817657232
H        10.12328229450161    6.85206480930504   18.48456251967772
C        10.07535593781346    4.29255687505527   19.20631678378286
H        10.06998210398222    4.99746548179235   20.02422272547155
C        10.05305181956416    2.93771490746671   19.44975031273369
H        10.02953338126785    2.56833701754005   20.46435101554481
C        10.06064790447104    2.03835105911863   18.39639316932268
H        10.04438439529556    0.97384559937979   18.56751559532511
C        10.08939868753105    2.48113351945830   17.07974459440159
C        10.11325115379403    3.87568734824243   16.80255753098280
C        10.10673459580324    4.77847255345625   17.89583204396752
O        10.13186093262267    3.51966620946699   14.48029924527753
O        10.09658546006822    1.55042993665685   16.11911376336669
H        10.11115535637853    2.00921844827951   15.24910769297085
C        10.36639128140400    6.55912735799112   11.60301142706432
C        10.47264840511622    7.94694738036407   11.49402318925230
H        10.50629006180848    8.56881877851656   12.37448654777670
C        10.54314955854095    8.55168765308988   10.25502246808742
H        10.62617844616493    9.62562112720857   10.18940121223858
C        10.50854023645472    7.78515430840613    9.10009659401077
H        10.56128264256168    8.26106499289489    8.13312848308130
C        10.41153975906375    6.41036961736789    9.17961140490984
H        10.38981711480912    5.84118572905361    8.26388727956140
C        10.34462020327938    5.77256200464528   10.41981820675783
N        10.26147110024449    4.39501644629688   10.61840366718092
C        10.25330499469031    3.52214254691944    9.63896770101972
H        10.30627693840391    3.89647597269265    8.61786997244873
C        10.10756107347374    1.38442775601766   10.95560159619223
C        10.18851901938255    2.11869700025840    9.73061213260568
C        10.21304033362764    1.39866383189712    8.49722898309431
H        10.27449064735351    1.97246494259225    7.58297665042821
C        10.16667792692768    0.05093745946118    8.44752000867077
H        10.19146736532615   -0.46920818209434    7.50186715326703
C        10.03239828155329   -2.11732074817159    9.58369414777371
H        10.06263824723279   -2.60204307792781    8.61935910644070
C         9.94568811077824   -2.86135883266480   10.73875098435404
H         9.90717474767528   -3.93961085375874   10.68875274526673
C         9.90595557413830   -2.23371119338568   11.97291234049372
H         9.83595821458886   -2.80023687806965   12.88776792735179
C         9.95573919962309   -0.84871628813851   12.07155689175253
C        10.04781026943379   -0.05833236950921   10.89289960467017
C        10.08238547668979   -0.72133649672239    9.64005925395824
O        10.08550797785576    1.94740569760024   12.11595100105790
O         9.91134208162828   -0.31847135914327   13.29875894457152
H         9.95986049472010    0.66001462024917   13.21100835297214

