97
CSD_code = QIKKOM | q = 0 | S = 0 | Stoichiometry = C40H48BCuN6S | MND = 4
Cu       10.94423269132604    0.20890989243346   15.68145701073107
S         8.80071256436180    0.74609056760278   15.13314223271137
N        11.28174289345199    0.67516570610703   17.63917294050754
N        12.58011506903040    0.57774636563733   17.91204058463624
N        12.52335532481588    1.23719738346599   14.97584211745696
N        13.61181875461377    0.89000154745776   15.66119623378228
N        11.87832388521434   -1.56545256405374   15.80043601298984
N        13.02049854193372   -1.40465556778365   16.46674493402100
B        13.55427988074218   -0.02723152776230   16.89219145881088
H        14.63516206583690   -0.13929093692256   17.36780962530686
C        12.81272718942947    1.03493335911100   19.15133045970633
H        13.79994238673013    1.04013975823854   19.56790981778320
C        11.61355735511353    1.44692508367192   19.69399707309191
H        11.44027432034392    1.85305287663091   20.66963650658687
C        10.66431471674775    1.19349710479641   18.69322663060438
C         9.20645688331607    1.36899326085712   18.69965325461168
C         8.64235900452637    2.64246087065907   18.78243989827218
C         7.26261333378963    2.77074295711449   18.76754864392698
H         6.82214324938620    3.75662382077455   18.82710158287144
C         6.43252715906363    1.66304129729633   18.67420096367455
C         7.01124692997291    0.40575390720240   18.59390614506686
H         6.37472152262289   -0.46700710868331   18.52665358534877
C         8.38748753463677    0.24138691214345   18.59935668010274
C         9.51341325767456    3.85936829804708   18.88134341979380
H         8.96026014493955    4.75121732971977   18.59564933583180
H        10.38547683855643    3.76196561256352   18.23841843111767
H         9.86486092908478    3.99063142235245   19.90511632892295
C         4.94275828514412    1.83479385605259   18.66693511413656
H         4.60173594943266    2.21921830282230   19.62816046886373
H         4.44155369007435    0.88859035092734   18.47784456109833
H         4.64511822313185    2.54779878343597   17.89950419309664
C         8.99123248834309   -1.12895886735330   18.50901368272163
H         9.66451696881074   -1.30396062254117   19.34798190302836
H         9.57380463100990   -1.21845168755013   17.59084019953408
H         8.21831472765590   -1.89438338306799   18.51338289680979
C        14.68353443097537    1.50738782004047   15.14313791000141
H        15.66216333213548    1.36461726488914   15.55503575283815
C        14.26998087915785    2.27901282285903   14.07873811467832
H        14.86687995418557    2.90808024891014   13.45059705897735
C        12.88404902060502    2.07872135217069   14.01394646382557
C        11.90364533081771    2.69313108785564   13.10953769928585
C        11.92747178522918    2.40913543632118   11.74360448168436
C        10.99857686449587    3.01660176834300   10.91050050912710
H        11.01580120321453    2.79507527481941    9.85216836669269
C        10.05295313164035    3.90037660191100   11.40650312171516
C        10.04064004074533    4.16534031769495   12.76948138559871
H         9.30541180349630    4.85075631712207   13.16765169880208
C        10.94813295067301    3.57164053230104   13.63124862461572
C        12.93674147052109    1.45351515449782   11.17895816581201
H        13.09179057176990    0.61265810266115   11.85184431189879
H        13.89578255092220    1.95330699472210   11.04406271279054
H        12.61138457638783    1.07898218366867   10.21100167475724
C         9.04402749101457    4.53900814122974   10.49959888264950
H         8.09510468525564    4.00450063701080   10.56027245332680
H         9.38006085991494    4.51680688007286    9.46574991585219
H         8.86416573680599    5.57210579314332   10.78958735278914
C        10.90517724337650    3.86139130391045   15.10050804795374
H        10.20835784109995    4.66799011881835   15.31426175737112
H        11.89300186247854    4.13817419363120   15.46710091927958
H        10.58343314363080    2.97106693521345   15.64350678895805
C        13.59510150329824   -2.59932652251476   16.66686013780427
H        14.52868681826944   -2.68882380460913   17.18450195501485
C        12.79027336580811   -3.56987697190511   16.11091060525601
H        12.95790160246391   -4.62695405833899   16.08133835469166
C        11.71011133063205   -2.86221797899296   15.56565301095722
C        10.57954897170158   -3.37884024757807   14.78493021202363
C         9.65894790436835   -4.25665161437989   15.36086736715230
C         8.61708017669420   -4.74582070902559   14.58688919930731
H         7.89709152314335   -5.41708570732467   15.03425812406351
C         8.48207484395529   -4.39844882146646   13.25077127572153
C         9.40792054032897   -3.52740399221444   12.69455053633097
H         9.31705930471454   -3.25795478384655   11.65062023013845
C        10.44664318949430   -2.99820777407105   13.44566708224606
C         9.78159653505087   -4.66283903339792   16.79907387644381
H        10.48358504513091   -5.49098651245124   16.89742123182789
H         8.81953976528009   -4.98862285339344   17.18828603045701
H        10.15025572231188   -3.83880260242126   17.40563930275299
C         7.36357902202092   -4.96454531535474   12.42839579851583
H         6.43199838649148   -4.96506635651683   12.99202337312385
H         7.58617166088906   -5.99609172750231   12.15373223372336
H         7.22272001140504   -4.39215444238214   11.51434017490360
C        11.41255825617431   -2.02527945774751   12.83696093371530
H        11.20547582305078   -1.88042343693040   11.77876956310307
H        12.43539948498723   -2.38370840719018   12.94874707333829
H        11.34461867505718   -1.06222686608725   13.35074733949919
C         8.69457587039036    0.96663840058250   13.30983620314088
H         8.09291410262482    1.86017795495660   13.14615076766059
H         9.69118271813385    1.13327430545299   12.91227461288255
C         8.02609521397990   -0.27850048233884   12.74804352288110
H         8.77603529555539   -1.04329334878743   12.55356002916763
H         7.51039359955913   -0.04764715079889   11.81544514305701
C         7.06399701046265   -0.78983247070421   13.81436004588367
H         6.22356974848690   -0.10141552900166   13.92079442823997
H         6.68296238712337   -1.78095247093445   13.56746272361798
C         7.86578502648321   -0.82881286225227   15.10189180515160
H         8.57084185294050   -1.65734686902796   15.10884909105078
H         7.24787956013336   -0.85496712474029   15.99548750636387

