47
CSD_code = QIKNIJ | q = 0 | S = 0 | Stoichiometry = C21H23INRh | MND = 8
I        10.99716709149674    9.63751075553071    0.87365883394424
Rh       10.12316975500638    7.46332324735007    2.09530435072224
N         8.53014354933455    7.37714843363433    0.87401189208340
C        11.97398935191324    6.95027212394804    3.15723239365831
C        13.03872466743672    7.83592037249212    3.72952053053039
H        12.66433471756191    8.41441106589090    4.57135294028196
H        13.41293889996871    8.53021386847852    2.98000527920059
H        13.87527560208594    7.22511867988546    4.07577246404379
C        12.10843760141934    6.26500799593010    1.87309304240554
C        11.06154657357895    5.35018411633495    1.75854067708929
C        10.87249967655678    4.31103289441107    0.69675702952604
H        11.35969744365295    4.59668332662692   -0.23381457325538
H         9.81694520477559    4.13057962207177    0.49622692139656
H        11.31343528085970    3.36967800861015    1.03216657891919
C        10.23461705989916    5.46703867948697    2.95060756797115
C        10.89919111345133    6.35022148809943    3.86373974322100
C        10.57418586792026    6.48579878674249    5.31921926941075
H         9.51021371219902    6.64775607293907    5.48592141336387
H        11.12279223354937    7.30811807251550    5.77064666293832
H        10.86104458873252    5.56461205628317    5.83033631269064
C         9.14160036077073    4.51283238561804    3.32401339054715
H         9.57832397252571    3.59951132995882    3.73439491870766
H         8.53820616307792    4.23859908036154    2.45986554843551
H         8.48706551086105    4.94576923614843    4.07803490497150
C        13.27903558854648    6.43833299726406    0.95938621292289
H        13.11357386475743    5.94575270128508    0.00399204973128
H        14.16711371832942    6.00421633215752    1.42262674288512
H        13.48047474958926    7.49169691117022    0.77140957712371
C         7.36297850971405    7.90122199120814    1.30974042963925
C         6.21655289904342    7.83896753772786    0.51719271611878
H         5.29395971318833    8.26040826959902    0.88193691971271
C         6.27829107695028    7.25059846207680   -0.72828539629184
H         5.40012444647675    7.19214742936056   -1.35302845590146
C         7.49780547748362    6.75359678022134   -1.17565702914956
H         7.59598567288799    6.31206166846520   -2.15414652105355
C         8.59523512039455    6.84457001414223   -0.34502655926354
H         9.56755961715327    6.49490408736076   -0.67422433336794
C         7.48381839689123    8.55255612724678    2.59698042753900
C         8.79151352216651    8.54964989407129    3.11640762954700
C         9.05264120887483    9.26872005046464    4.27515577729285
H        10.06228941117072    9.34400232686495    4.65808919068694
C         8.02703957688009    9.91808441712531    4.94037086133335
H         8.24111623931863   10.46887586860687    5.84515528793376
C         6.72814855565678    9.87465667782998    4.45091251735212
H         5.93538423776306   10.38142245135321    4.98105076703289
C         6.45568267036077    9.20848989920688    3.27530596905349
H         5.45142972776035    9.20302540583361    2.87764712631278

