77
CSD_code = QIKSAH | q = 0 | S = 0 | Stoichiometry = C25H38B10IrPS2 | MND = 8
Ir       14.35067381945160   11.15930255202391   17.39158926099790
S        15.98345596738045    9.36734876068780   17.37390048538303
P        14.27581584402920   11.07187144963436   15.10692152778005
S        16.22803414621469   12.67041415979116   17.14502517562780
C        13.46073806525165    9.62214423941168   14.35994074056350
C        17.51993834897393   10.16455682670846   17.90637201491451
C        12.09559113372578   11.28047182976614   17.77812029032837
C        17.64367284848674   11.73911817895703   17.78185111708776
C        12.73396060300754   12.48714302152424   18.19495304188616
C        13.60597590813932   12.16933376019650   19.29399214181962
B        17.51270537887732   11.08160627986931   19.36569889892238
H        16.47161907449984   11.21505720583293   19.87945303648161
C        13.35733778505758   12.50486260666361   14.45478270028680
C        15.78954297568902   11.12478301512407   14.07335081201696
H        15.51437821422209   11.21553955998990   13.02326132615582
H        16.33730908758194   10.19656735661529   14.23044641543644
H        16.41149910342834   11.96669398709635   14.36908918144812
C        12.64019441105186   10.21223747390094   18.54503901972853
C        12.36907847219733   13.87899540935373   17.78883148292500
H        11.63860538772641   14.29287978154223   18.48768961617015
H        11.93800567730490   13.90159267658752   16.79017602855393
H        13.24611270018764   14.52322859837586   17.79555168315776
C        13.10678897801805    9.59965505159194   13.01382405533563
H        13.28977637553416   10.46458517805064   12.39135073290398
C        10.92953338945518   11.16139463999793   16.85101921555009
H        11.03079541374960   10.29939179643828   16.19194669915855
H        10.82029722773159   12.05474764470340   16.24148783061907
H        10.01591961436399   11.03284039301737   17.43496153274205
C        13.55641878535292   10.76988304601810   19.50295811779295
C        13.24271506285118    8.49532078252801   15.14111155441301
H        13.55853496351426    8.50757277799608   16.17373991615185
C        14.12391528495467    9.97682370849755   20.63699732841673
H        14.69219932816343   10.60211259566184   21.32059570821150
H        14.77838664329766    9.18348342133580   20.27557442865610
H        13.30934525522908    9.51014691531120   21.19352911240619
C        12.06562602556581   12.42443362315023   13.94805378196622
H        11.57115820258044   11.46696713717866   13.87334082305538
B        18.38227854630788    9.57048501507962   19.27300048422369
H        17.93425933959375    8.62980049734394   19.81771403184895
B        19.24312883846515   12.22575531382529   17.40135568852812
H        19.36625351610127   13.18294443374272   16.73065798836319
C        12.28216442984454    7.35909316677025   13.26230983361155
H        11.81839762342899    6.48272885979343   12.83456434254906
C        14.28863183996469   13.20146804625004   20.13203693937171
H        14.83754469892582   12.74883945429752   20.95382900566646
H        13.54602797736581   13.88611249224244   20.54422837302361
H        14.99071914521065   13.78707595058527   19.53770485986832
C        12.51523960782147    8.47370576243601   12.47174627324288
H        12.23699634116081    8.46327883703379   11.42799153783517
B        18.56870676036711   10.78158443926968   16.67887608512615
H        18.16658773530931   10.72016906024114   15.58102855644632
B        18.60782871136027   12.40475081606916   19.04426907437000
H        18.31475283449243   13.47760164332918   19.42574676336562
B        20.18714979352971   10.70859108989634   17.33248651235393
H        21.11093056343524   10.57846067321487   16.61578871128654
B        19.13875506885795   11.00615233678378   20.01491972309967
H        19.31866251405451   11.08619485984004   21.17526913931983
B        19.02256951467786    9.38511570935708   17.63242158909211
H        18.98975512168242    8.32659053495020   17.12365949482070
C        13.96877017282960   13.75166169444724   14.56413787965392
H        14.95615266730245   13.82020485181414   14.99732880243755
C        12.13389362988625    8.80616345779709   18.59251873569503
H        11.58645834138703    8.55246462738528   17.68774486933432
H        11.45800262996439    8.68934360959882   19.44302887483621
H        12.95266427676185    8.09972649587874   18.71940104740582
C        12.65426406147735    7.36768165598553   14.59589179989701
H        12.48929206984443    6.49489645541074   15.21008703292792
B        20.22627745374078   11.72511473918536   18.79797451435113
H        21.19262345153394   12.32042727885873   19.10891650180356
B        20.08613334863085    9.94428712041475   18.94263120733414
H        20.95304498421650    9.26449363744344   19.35645872517588
C        12.02931606777593   14.80434416363089   13.62632698659014
H        11.51232545676728   15.69525094699138   13.30216325109190
C        11.40900033213171   13.57018266682295   13.53131124129239
H        10.40642218072264   13.49744410428113   13.13500538344057
C        13.31073365860236   14.89312799844440   14.14748450864417
H        13.79362919159629   15.85497806216403   14.23425679559930

