70
CSD_code = QIKSEL | q = 0 | S = 0 | Stoichiometry = C20H36B10IrPS2 | MND = 8
B        -4.62625995354834    8.28733463515123   -2.64449691701397
H        -4.64084019959248    9.42757161143626   -2.90988885460578
B        -6.05465238409409    7.27777495521365   -2.56715759784664
H        -7.10483993094367    7.78074465759007   -2.72464850643003
B        -5.71479959415280    5.73154750515900   -3.36017242306411
H        -6.54630351065585    5.24342986685827   -4.03295139992380
B        -4.07231421048560    5.75919589038837   -3.95470462128674
H        -3.75277166100469    5.38095201813378   -5.01341636859315
B        -3.30420424277635    7.49158653455277   -1.81750844929796
H        -2.40342385788355    8.14660270112755   -1.44318019563430
B        -4.96522248035332    7.43394764895070   -1.15814186299921
H        -5.27500888594347    8.02711175361209   -0.19058146856583
B        -5.65488402622656    5.84564069510630   -1.59078706132072
H        -6.46455557650501    5.32160721847349   -0.91639942287573
B        -4.41359384554738    4.90765672236298   -2.46101236926953
H        -4.33456606991550    3.73424180029114   -2.41520688727709
B        -2.97077115602279    5.94510441971421   -2.61183856292981
H        -1.85312983781059    5.60849850311299   -2.75332870050503
B        -3.93122730416210    5.97973399606507   -1.12076929020991
H        -3.50651502479692    5.55187041990140   -0.11006362457842
C        -5.01613024384544    7.19907510479901   -3.92908492541009
C        -3.48996735408035    7.31747053853158   -3.51300723685061
C        -4.06781202690691   11.21042696952521   -5.06539280507300
H        -5.01468005475697   10.88615404732388   -4.63771911715042
H        -4.09094088662084   12.28437111706400   -5.24963153066514
H        -3.25895004878264   10.97165828284749   -4.37813019647218
C        -5.26937423355573   10.91729715069309   -7.58559567415500
H        -5.18415855250717   10.63811947499496   -8.63224658027708
H        -5.38562720206629   11.99586658668932   -7.49377223549561
H        -6.14142811370087   10.41935153460214   -7.16398880368638
C        -2.39968213356302   11.27248337126003   -7.30872045631482
C        -1.16716696369632   11.03498812504681   -6.70557465504882
H        -1.11071417379541   10.31921440051563   -5.89675485716666
C        -0.03449859523142   11.69377397005672   -7.14412932227981
H         0.91742112013911   11.50523564469697   -6.67051782761678
C        -0.12075510623115   12.59020777021506   -8.19841788399649
H         0.76338992527236   13.10256217466276   -8.54753108081912
C        -1.34178692662920   12.82391140547429   -8.80749825387189
H        -1.40969105764788   13.51856687547958   -9.63214319800832
C        -2.47955231038579   12.16799377291856   -8.36677709539548
H        -3.42399018546934   12.35655597418050   -8.85430016215693
C        -2.86965768810416    7.99473462610938   -8.98316956128405
C        -2.68519840534964    9.06711309926320  -10.00731301790466
H        -3.62364484859490    9.56694875393141  -10.23781792954191
H        -2.30817151053719    8.62116756508866  -10.93006058122939
H        -1.96676284529939    9.81518488946916   -9.67814419920185
C        -1.83851032556239    7.44528678243747   -8.16796921706186
C        -0.39780224683125    7.84326171188330   -8.17790170109686
H         0.14407826215673    7.26380119663456   -8.92878265650141
H         0.06014590666692    7.65560687585974   -7.20896183173224
H        -0.28331742148259    8.89920115545253   -8.41498815976850
C        -2.35293245018450    6.25636504873725   -7.53898264060060
C        -1.49502792325694    5.28728009870710   -6.78979037467283
H        -0.66466495829002    4.97141138807787   -7.42304797062463
H        -2.05623431887086    4.40600911699153   -6.48976993780183
H        -1.07704718471323    5.74487298176452   -5.89260982609341
C        -3.70884115075708    6.11524996068041   -7.91708201477966
C        -4.62830713503456    4.96304120001383   -7.66687014064105
H        -4.14583821805918    4.18583044495754   -7.07983856497400
H        -4.93938425173962    4.53368689191617   -8.62053370606538
H        -5.52531231786848    5.28291073057821   -7.13609966220285
C        -4.04673701991011    7.21729217224146   -8.77827471482553
C        -5.33413761844533    7.32106340413386   -9.53147222018814
H        -6.17893372749744    7.09778845219094   -8.88267226147206
H        -5.34244953283449    6.60485575972332  -10.35610476258943
H        -5.47265297724456    8.31652764156403   -9.94726297918139
Ir       -3.48227752555345    8.07826290888369   -6.77902800653904
P        -3.81090393593289   10.33047937864169   -6.64916553594509
S        -5.54108025245319    7.90324175362756   -5.51385060219692
S        -2.34501750190605    8.15008616567667   -4.64094674111670

