47
CSD_code = QIKZOZ | q = 0 | S = 0 | Stoichiometry = C14H24Cl2N6Ti | MND = 6
Ti       11.28401593812765    2.71836091585844    4.44696249047757
Cl        9.25792587387876    3.43743008634902    3.79250011206437
Cl       12.23976103931331    4.61312137379193    3.70686961355786
N        11.83457230594276    1.77810972201468    2.79787266285261
N        10.61681357007948    0.85516874678781    4.37918420656712
N        10.09143889882802    0.30966560210894    2.11616146853246
N        10.98219480287206    3.37294065839017    6.27663405257213
N        12.81335251759944    2.33438709329788    5.65152961868605
N        13.02516304749851    4.00525686692274    7.32993611570061
C        10.82444423663924    0.94826770277074    3.06467297884309
C        12.12234505725818    2.08072329639138    1.41109918742426
H        12.63398354133076    3.04888509736144    1.37374689139354
H        12.79287537738418    1.31155796444380    0.99572495279451
C        10.81254419438124    2.11588781713697    0.62267480689500
H        10.98595851457566    2.37132900039125   -0.42210863955201
H        10.15842552895841    2.86931957263079    1.07578547943523
C        10.16192936282211    0.74091614634227    0.72854721568705
H         9.14480783136647    0.77222962354812    0.32543538060299
H        10.73894348975964    0.00304793919674    0.15367275928743
C         8.90465948298564   -0.42596825962288    2.50892303245493
H         8.75661842139339   -1.23682224460289    1.78700133265690
H         8.02633628794370    0.23535194311615    2.47866241278500
C         9.08559124906395   -0.98331521111136    3.91439118773213
H         8.17454381450017   -1.48642549495316    4.23784310940986
H         9.90957328583633   -1.70024718541136    3.91862040356216
C         9.42920728025671    0.17609929389419    4.84982158281632
H         9.62371850517782   -0.18276382088509    5.86659740952250
H         8.58765497988335    0.88945964770150    4.88723396665806
C        12.30002438395379    3.26109457168161    6.45781500886553
C        10.28164260323189    4.46330540746179    6.92548093575130
H        10.33110998318352    5.36477028024052    6.28897911195508
H         9.22852247602688    4.17946754363522    7.03146255284078
C        10.91577355780172    4.74995825401473    8.28606692577440
H        10.82637849330394    3.85967241508339    8.91281992732262
H        10.41580324404610    5.58338173388989    8.77889270577372
C        12.38895909208261    5.07487845019367    8.07306678632372
H        12.48905081276617    6.02428802470713    7.52654323123845
H        12.90540850602206    5.17234231434579    9.03469922316783
C        14.47397578546608    4.02861188087560    7.23075308487852
H        14.90052392873506    3.38701618891900    8.01468113529944
H        14.81500398103914    5.05425498031233    7.40250297917600
C        14.91860581957636    3.54638710874978    5.85394625008087
H        16.00435480532988    3.46323820879477    5.81708576011819
H        14.58209327395299    4.25624014807431    5.09265025225766
C        14.25158589310326    2.19667893806509    5.58226503400975
H        14.58641375554675    1.45402833138334    6.32367787668249
H        14.50337116918285    1.82741132571189    4.58251542706204

