99
CSD_code = QILBUI | q = 0 | S = 0 | Stoichiometry = C42H48N2O4P2Pd | MND = 4
Pd       -0.22402611367765    2.81708154909365    4.75515540870593
P        -0.18861138414108    1.54915180558764    2.83048402189359
C         0.44541913030938   -0.18612204869248    2.54282962877551
C         0.74912327087667    2.43282937900001    1.52834860269863
C        -1.87571792319514    1.50859827091784    2.14153845344896
C         1.77715877667707    3.27076176497732    1.95018503382213
C        -2.77321518397937    2.40390158211612    2.72046958083077
C        -2.31612364704170    0.66737040567763    1.12478526150749
C         0.48445879251938    2.30978580487010    0.17018137513538
C        -4.50914451569168    1.63883091072279    1.25873808440047
C        -3.62715949222043    0.73699618547006    0.68666544462986
C        -4.08147151348723    2.47187704351829    2.27989017549862
C         1.23918796479587    3.01778839058664   -0.74883530718423
N         0.45197311741561   -1.06593339807727    4.79336233028430
O        -1.11690027772460    4.97913387213339    2.02238628877936
C         1.12189412676253   -0.71166623193061    3.77180979187420
O         0.65610391450514    6.27448939590413    2.54788424635734
C        -0.20812018039307    4.73881645062101    4.11987589849802
C        -0.14625652529746    5.42429072664718    2.85089352921702
C         2.62844291387836   -0.73782085397552    3.86109508464286
C         3.21942673837383   -1.64743320818943    2.77790429199482
C         3.11354013093257    0.70519270980493    3.67646547199615
C         2.53551097691781    3.97124721399051    1.03097531772232
C         2.26508753292460    3.84590680055846   -0.32214997352300
C         3.06534177188242   -1.24862576214867    5.23531651644653
C        -1.16051356274414    5.58172462441605    0.74337777365536
H        -0.43704765640993   -0.81409099905394    2.38702871820786
H         1.09402502282142   -0.19864303890434    1.66775092444669
H         1.96968011321557    3.38483174123674    3.01646148511027
H        -2.42761798123295    3.05841611514820    3.52779110180499
H        -1.64613944767240   -0.05351204317392    0.67698374297171
H        -0.32240167028496    1.67790800931488   -0.17109882607565
H        -5.53103301515650    1.68659666212957    0.91220308855068
H        -3.96283125628194    0.08145268157002   -0.10405479517390
H        -4.76958173157292    3.17003770511027    2.73350232486808
H         1.02125424973150    2.92801813278863   -1.80367168610423
H         2.96696057083345   -1.30098171132809    1.77869739142271
H         2.84879133766598   -2.66317158487080    2.89585556624115
H         4.30348134788829   -1.66285955261575    2.86450209254804
H         3.04731554945246    1.01198186769533    2.63482970537305
H         4.14738890818821    0.80259182552884    3.99895145693974
H         2.49543454433081    1.37525677521390    4.28258696459223
H         3.32326075590408    4.62705240599701    1.36956908055128
H         2.84655728535246    4.40086162775284   -1.04369463163584
H         2.66599486356441   -2.24282779987682    5.41335238383607
H         2.69820518903027   -0.58669908772246    6.01393605436737
H         4.15074557334715   -1.28801593426924    5.29163805629592
H        -1.97517365980072    5.09824525660681    0.20947657995221
H        -0.21424243848081    5.42757020524756    0.21921071183924
H        -1.34346686925815    6.65512831674226    0.83335500059003
N        -0.89913887872855   -1.06593271081680    4.71712789297286
C        -1.56904988748441   -0.71165066594816    5.73868301539467
C        -0.89255076883035   -0.18608552469479    6.96764248931041
P        -0.25849666783797    1.54918990477598    6.67998489161710
C        -0.23904436528053    4.73878877161135    5.39057524508094
C        -0.30088687898212    5.42425335725871    6.65956990417442
O         0.66969200104610    4.97902042661758    7.48810975210896
C         0.71331735572596    5.58163550255668    8.76710980949597
H         1.52791769726048    5.09810507765154    9.30105149285564
H        -0.23298274636019    5.42756883044610    9.29124691347967
H         0.89635721478222    6.65502229757656    8.67712621059989
O        -1.10312708700227    6.27458320510337    6.96252309250459
C        -1.19628771333242    2.43282701653454    7.98211391100558
C        -2.22431583397168    3.27076047335157    7.56025722496871
C        -2.98271230022189    3.97122352511428    8.47944636346747
C        -2.71234510288804    3.84585905137015    9.83257942590802
C        -1.68645783388254    3.01773849387026   10.25928936460018
C        -0.93168510998909    2.30975590359341    9.34029120670127
H        -0.12484104384132    1.67787192762456    9.68159815937694
H        -1.46857692301795    2.92794127640520   11.31413437031552
H        -3.29385196228631    4.40079263186358   10.55411049351641
H        -3.77045181000815    4.62702938391069    8.14082934519829
H        -2.41679655733904    3.38485160955690    6.49397824730404
C         1.42860036079021    1.50863042810826    7.36897343740690
C         2.32614354546207    2.40391111197698    6.79006758293732
C         3.63438325245622    2.47186490851269    7.23067759171625
C         4.06201165073776    1.63882292474592    8.25184635460137
C         3.17999394686072    0.73700882612403    8.82389939642584
C         1.86896765402864    0.66740077644295    8.38574472173576
H         1.19896388403335   -0.05347337344183    8.83353172562835
H         3.51563622498623    0.08146898738188    9.61463454702930
H         5.08388912449091    1.68658485225619    8.59841061579815
H         4.32250831633965    3.17001830071026    6.77707799391858
H         1.98062359810803    3.05846878745879    5.98275838566003
H        -0.01008585642310   -0.81406084899547    7.12343193057195
H        -1.54114328331119   -0.19860797623797    7.84273188300446
C        -3.07560142595490   -0.73781380410121    5.64941377717301
C        -3.66658651324964   -1.64740387284655    6.73262211998720
H        -3.41411443940986   -1.30093741238599    7.73182233175894
H        -3.29596216939929   -2.66314793938747    6.61468606135638
H        -4.75064210758762   -1.66282116410050    6.64602839579720
C        -3.56070499793921    0.70519908997102    5.83402717108999
H        -3.49447886563526    1.01200205525380    6.87565869042156
H        -4.59455292764693    0.80259632201194    5.51153823881961
H        -2.94260307586503    1.37525283936790    5.22789730868175
C        -3.51251669132955   -1.24863865963650    4.27520418550396
H        -3.11318118180654   -2.24284753112817    4.09718150635608
H        -3.14537974089414   -0.58672918832912    3.49657036292638
H        -4.59792150373828   -1.28801916492336    4.21889003810265

