99
CSD_code = QILCAP | q = 0 | S = 0 | Stoichiometry = C42H48N2O4P2Pd | MND = 4
Pd        1.17732122315423    0.62744673458184    4.35595788341224
P         3.36704379595125    0.41512245067884    4.53116266419897
P        -1.01666483430556    0.93452510609349    4.18795249684146
N         1.61598344141041    2.39162195194967    3.33852467034235
C         0.87643844220939   -1.03750658316409    5.37747480615152
C         3.90080945411161    1.87566486063979    3.70867075619732
C        -0.49197802113135    3.34514558695029    3.02631623858101
N         0.72944437944177    3.17899333746746    2.69897472300205
C         4.07100591672937   -0.98923196127413    3.62127637079019
C        -1.78401511628370    0.48879661253303    2.60865346577467
C         4.05025918205912    0.33002331501756    6.20402205131552
C        -2.12678910705209    0.30126438836992    5.46994603386503
C         3.36741233295802    3.92062854125222    2.36948663392461
C         2.93234005779750    2.67817752699846    3.15397684530427
C        -1.14612624699838    2.76543776275788    4.26251620866620
O         1.27002890709196   -3.33121907753062    4.77462934985515
C        -2.60242244044842   -1.00384097675811    5.35896787527578
C        -3.63111164440141    0.00328886597647    1.15985070858063
C         0.73143715996522   -1.01596892043056    6.71110306963220
C         0.79098714748382   -2.24313788224944    4.55878827217413
C         2.94735196158790    3.73290133776536    0.90554488624441
C        -3.14916756313929    0.31626001478203    2.41867881355568
O         0.09900608492775   -1.95855727466262    3.41890118025884
C        -0.90713135223483    0.34522657488265    1.53700105736943
C         2.74080455683997    5.18012649594665    2.98222276031185
C        -3.34302331893296   -1.56498483644665    6.38092354773803
O         0.93586929342758    1.34973524569593    6.83619578160777
O         0.89786401441466    0.15107869157276    8.72979036972665
C         5.27559805410884   -1.61143879859552    3.91890402530772
C        -1.33038108967982    4.29434811614200    2.18028530324393
C         4.00549944909632   -0.87406810261268    6.90413845318183
C         4.99370264630030   -3.04446582479833    2.01206760767043
C         3.33927940521230   -1.38658723689788    2.50405507149522
C         4.78068306457964    0.25049855623908    8.87626033210478
C         4.81442285701909    1.45149736413464    8.18550968872171
C         3.79828158241682   -2.41218460235168    1.70218562749226
C         5.72988619006270   -2.64188494666066    3.11371307128752
C         4.44395948620051    1.49459271398587    6.85369325521131
C         0.86576271444461    0.26367514991211    7.39206444194141
C        -0.59162502528664    4.70592813335857    0.90525504068643
C        -2.75765215472911   -0.12956127634081    0.09188813156938
C        -1.39446617485496    0.04286772771056    0.27904259286638
C         4.37580511264960   -0.91021151095931    8.23511099022683
C         4.88652478585331    4.13805335795680    2.38123928522577
C        -2.38138057248956    1.02386941004670    6.63115174986926
C        -1.61424653077610    5.55418514650341    3.01406226348918
C         1.07372452617211    1.36297713772760    9.44404275301389
C        -3.60298342396140   -0.83577465958594    7.53084690338459
C        -3.11929089355250    0.45578053349469    7.65432164229277
C        -2.65736020127677    3.65336862726807    1.75434729155024
C        -0.05768483349161   -3.03228428224357    2.50688854705779
H         4.95713555363297    2.04300807633155    3.58327786661046
H        -2.17972430435180    3.09405998700818    4.37520574384352
H        -0.55529346831541    3.04877890276221    5.14666536797327
H        -2.37863031506455   -1.57186636791596    4.46596080454326
H        -4.69196699479654   -0.13378480234750    1.00873857201738
H         0.52200460384909   -1.88472612343342    7.32318963910129
H         3.50097035812933    2.90251716308148    0.47072164745262
H         3.16650796042962    4.63254151664540    0.33390236425099
H         1.88799968810998    3.51847114542950    0.83910336033590
H        -3.82842617132865    0.42509505493628    3.25315117563144
H         0.16178951181867    0.46953178756679    1.71472610635598
H         1.65864678699065    5.12072496059201    2.97693097993864
H         3.04723108993414    6.05964027939104    2.41854926936006
H         3.07628976437989    5.29508221208782    4.01156487570911
H        -3.71170888274844   -2.57615474405735    6.28747298871260
H         5.84676325326218   -1.29539372756239    4.78126668331116
H         3.67139162929169   -1.77205795681048    6.39994629058934
H         5.35117529692652   -3.85388119142713    1.39238181380865
H         2.40040289246190   -0.87116219061070    2.28889178831038
H         5.06244793180656    0.22004477155847    9.91896785501691
H         5.12303639934329    2.35646135661734    8.69028828320610
H         3.23058054464393   -2.72615109508401    0.83730245600150
H         6.66253370164062   -3.13479309601383    3.34786512080590
H         4.44324571809274    2.42705420862015    6.30478345966586
H         0.32840556785977    5.22932265436400    1.14001694726231
H        -1.22291884042942    5.36428961930386    0.31198500898586
H        -0.35327445021687    3.82852947254313    0.31019881283712
H        -3.14100272064240   -0.37084676739703   -0.88876856104773
H        -0.71705143289962   -0.06297412911182   -0.55607209015232
H         4.33871334287728   -1.84289987038191    8.77882204528588
H         5.41377403417731    3.31360017750035    1.90721065720286
H         5.26285544786591    4.26886226757973    3.39327807002131
H         5.11355376983169    5.04290572142982    1.81952056887563
H        -1.99160364595104    2.02598595113798    6.73870984652132
H        -2.20602747725286    5.32326073808611    3.89665348856304
H        -2.16343269411679    6.27948463185516    2.41747265986612
H        -0.68188146703067    6.01169150646573    3.33744693271072
H         1.14009532498554    1.09101394189623   10.49455245280791
H         0.22593668304156    2.03104149124665    9.27444699713898
H         1.98856594591027    1.86325415397533    9.11762430736489
H        -4.17572945137818   -1.27740975468665    8.33286179342075
H        -3.31429105779154    1.02086845430309    8.55454565585516
H        -3.25865832161446    3.33483239376011    2.60174901277811
H        -2.47345247443464    2.78925608018025    1.12095676144406
H        -3.24100533909628    4.37501855207490    1.18605718345142
H        -0.55674469083024   -2.62109877231295    1.63156584132995
H        -0.66206282960794   -3.82689885401009    2.95299323755243
H         0.91869754798005   -3.44502841006804    2.24073426785629

