84
CSD_code = QILGEX | q = 1 | S = 0 | Stoichiometry = C38H39As2ClN2PRu(1+) | MND = 6
Ru       11.10270402277640    9.77668039101188    3.59332762715431
Cl       11.23275935606117    7.92235281156635    5.10928373891654
As        9.01249022281444    8.62930142737739    3.06820057431443
C         7.80567993924829    8.90786033697476    1.53382491715704
C         8.99928023743369    6.67535086091928    3.03335889947720
As        9.92759933715245   10.68163128365019    5.55502114960179
C         9.32209354097898   12.51672164172723    5.99147732370667
C        10.61571380340389   10.25730953332203    7.33664746398427
C         7.81448400756094    8.92142650323837    4.57975355935127
C         6.60178070279018    8.24313553059915    4.66347321944053
C         5.78826969713998    8.38152518241170    5.77347836997011
C         6.18833216447063    9.19408131796939    6.82218158275183
C         7.39291574720554    9.86989693689197    6.74873110499680
C         8.21275375551418    9.74816309277036    5.63079988143154
P        11.00970821138808   11.50290128814574    2.07666280845335
C         9.45678066002008   12.42946869598523    1.83586127074801
C         8.33101605661765   12.14974321320853    2.59980251318235
C         7.17104957923835   12.88773222429430    2.43103921073307
C         7.13432140783457   13.91048170600321    1.49798358169913
C         8.25752414609634   14.19724364490973    0.73566358838796
C         9.41708877291340   13.46520172718886    0.90346156435231
C        11.41752114166930   10.93150477629991    0.39979227583784
C        10.44261101674744   10.73051326298280   -0.57170570197264
C        10.78718957667543   10.18120419291615   -1.79471633207332
C        12.09889043379684    9.81896254518360   -2.05302737072028
C        13.07189536236781    9.99758216736819   -1.08166300671885
C        12.73227234034145   10.54123257113265    0.14242011421610
C        12.11690610896620   12.93304691312314    2.33669140762089
C        13.03878088575032   13.42631512638917    1.42122893444206
C        13.79650194380520   14.54045596998233    1.74196188046729
C        13.63731908391274   15.17291409769533    2.96324268860942
C        12.70033650851310   14.70054917894792    3.86922725117136
C        11.94480087315490   13.58891229120883    3.55331551092306
N        12.15818172268231    8.64396679844423    2.36004145867318
C        11.71211795328670    7.94868698773392    1.31616891401722
C        12.47480861822050    7.01137768799372    0.65116738814364
C        13.77216494044348    6.77362579782511    1.08970432015560
C        14.25586841635453    7.51598565608412    2.14852126334675
C        13.43228794331045    8.45720568053272    2.76647743889807
N        12.93006171151586   10.23603987244717    4.24637745605449
C        13.26550158371070   11.13316236002293    5.17048279655576
C        14.52326005928055   11.20675377650585    5.73319376430296
C        15.48975541134258   10.29263655515381    5.33159056126123
C        15.15492024318808    9.36297719070200    4.36738674475027
C        13.86686920118441    9.35437761327792    3.83159896757563
H         8.25190996573392    8.46250169765182    0.64017296566604
H         7.63077458230500    9.96656999042652    1.34801044233740
H         6.84791545091890    8.41721068537725    1.72205141085633
H         9.19229682219822    6.30016810754053    4.03902775476466
H         9.77579209210764    6.29075458905012    2.36828301273068
H         8.02658771484351    6.31113622837246    2.69061315576917
H         8.94200932516067   13.04227433473700    5.11558572405355
H        10.15439891177023   13.08534517948489    6.41658635175675
H         8.52865044567566   12.46369718944337    6.74009486182674
H        10.52905152975823    9.18387272426959    7.50474249944528
H        10.04628456116811   10.79381181946887    8.10077244565022
H        11.66926350112417   10.53336963363797    7.42366615825264
H         6.29657966517306    7.59090022867442    3.85098620435695
H         4.85049865923292    7.84946181647084    5.82708531549533
H         5.56517245219804    9.29465085628387    7.69797168241970
H         7.70720846832426   10.49282628974276    7.57998835219371
H         8.36140790214681   11.34445638279132    3.33485703577267
H         6.30001885315624   12.66265530916632    3.02840420609908
H         6.23194430102256   14.48700361485376    1.36529421091273
H         8.22788826512887   14.99665807232055    0.01109194601058
H        10.29603600570227   13.68889923616456    0.31474517364402
H         9.41798944010787   11.01363677441838   -0.37286459513083
H        10.02874636184327   10.03681455437739   -2.54940196937053
H        12.36411925947822    9.39527860500956   -3.00935070035936
H        14.09391800505111    9.70931033518604   -1.27843060267817
H        13.48682427626334   10.66755082566174    0.91169391401442
H        13.16238758937206   12.95796534405894    0.45575296631980
H        14.51134613741458   14.91997893625367    1.02735277605613
H        14.23355933419989   16.03943299146230    3.20410808759445
H        12.55818850091894   15.20312959068072    4.81436788573361
H        11.18775420730349   13.21659805004222    4.23669304810151
H        10.69793641760371    8.16950072226858    0.98777997009110
H        12.05907677828250    6.47393195227049   -0.18531844148547
H        14.39108795220784    6.03246940206169    0.61039066415737
H        15.26182909495507    7.36207702936364    2.50154169232402
H        12.48551779452815   11.82696351658365    5.47359053598215
H        14.73620828289945   11.95450745376371    6.47947063258488
H        16.47772486480918   10.30571621057469    5.76272004741699
H        15.88172777906750    8.63871529991476    4.03966050328767

