59
CSD_code = QILLOM | q = 0 | S = 0 | Stoichiometry = C22H28N6O2Pd | MND = 4
Pd        5.63375917990905    1.79964273497417   15.02365894460232
O         7.49877162277942   -1.38620059593851   16.80340799630309
O         7.93260531060721    2.70974967513911   18.29300004677415
N         4.47771412053171    0.71902289950578   13.63798941267711
N         6.38955490883428    0.01770438068580   15.42883597175675
N         6.67468203133693    2.73576880913664   16.42027415743117
N         4.79651982795011    3.70512442496371   14.72313136063785
N         4.26768351646119   -1.51702529778450   11.61113429807624
N         5.14229675814708    6.70374675088004   14.57286222614862
C         4.23184881532468   -0.51613498148744   14.41946782382299
H         3.72952335018234   -1.26837566610802   13.79966453790319
H         3.58175453544659   -0.23498650488196   15.25946800020977
C         5.53722660269904   -1.07793669122817   14.98794915166960
H         5.32158974938917   -1.74371838604022   15.83458088332841
H         6.05900395596124   -1.68665857034583   14.23476474825273
C         7.31587683637384   -0.25953149769290   16.35298439880218
C         8.23473061248404    0.90572471801627   16.72611414989633
H         8.79777623288953    1.17446936242831   15.82527815075666
H         8.93008714756860    0.55457663191194   17.48912023411215
C         7.57396866654292    2.18539071309482   17.24315932190541
C         6.07408504652369    3.99625327497306   16.83486543814812
H         6.75345474309387    4.83233831441361   16.61203708274370
H         5.92473293659070    3.99553237310210   17.92311597800663
C         4.73183184808886    4.18542071925012   16.12366986245273
H         3.97962667910776    3.56916841477877   16.63494361149032
H         4.42814861162169    5.23862796509683   16.15360821493416
C         3.46459790534680    3.73791558684979   14.11080442021059
H         3.21390324644409    4.76840532871257   13.81874289439333
H         2.73366409400481    3.42326323810462   14.86333121803496
C         3.30967854586899    2.82354100107118   12.88822745825766
H         4.11899972576620    2.99356122098972   12.17775601838247
H         2.38019275841134    3.10423157902125   12.38777193612838
C         3.20655780166398    1.33396910057783   13.24267998417638
H         2.50307092955364    1.23247554887991   14.07602505457636
H         2.78140659085522    0.79233763805894   12.38475676501520
C         5.34612976860373    0.48010227209854   12.46883307518049
H         6.22540310008077   -0.06867581850204   12.82156918763108
H         5.68884231592356    1.44817008231665   12.08291855551714
C         4.70898515185182   -0.29497256270042   11.33755338209673
C         3.72546402621026   -2.23645586388960   10.64693160057114
H         3.38603327743397   -3.22116391088319   10.93947645838878
C         3.59370561774465   -1.78517457509534    9.34250096072018
H         3.15016229489846   -2.41043833400982    8.58433968980841
C         4.05151765889354   -0.51127831646254    9.04705028236346
H         3.97144820515904   -0.11518742931634    8.04520153384387
C         4.61367439737732    0.24927383226162   10.05916757561586
H         4.98018054496866    1.24491232051059    9.85735475689635
C         5.77883723925177    4.45563865523025   13.91677475408584
H         5.96595660333371    3.90230056693535   12.98789525526932
H         6.71521953613190    4.48125137310136   14.48377353645655
C         5.38323426517919    5.87217116980988   13.56607461922578
C         4.81882215765357    7.95577697433635   14.30995933836840
H         4.63460918209865    8.57751704730670   15.17598234733191
C         4.72078145888581    8.46269608205694   13.02310212588567
H         4.46055909973125    9.49543209888901   12.85509222695899
C         4.96995450508751    7.60251993378415   11.96588364373965
H         4.90649343239578    7.95040679010209   10.94512093435494
C         5.30151981824898    6.28555356976820   12.23869237586886
H         5.50264109849326    5.59322982924469   11.43457003180425

