65
CSD_code = QILPOS | q = 0 | S = 0 | Stoichiometry = C26H33IrN2O2S | MND = 8
Ir        2.71855478303221    2.91305136388559    1.18546631302549
S         1.30214789906107    5.76588964768813    0.27779588172313
O         0.78176136542391    4.93367545367753   -0.77891136926446
O         0.33371998154228    6.34870781136959    1.18367752023407
N         2.45970663889323    4.96443045252549    1.04890224510814
N         4.38818895191879    3.67810642587750    2.44852430779508
H         4.27357885822743    3.35206693096401    3.40578868180536
C         4.21666611985964    3.14893671297811   -0.15357182496184
C         2.34140366170827    0.92284379516042    2.03611351640993
C         1.03580765878576    1.77600344983054    0.34520932638955
C         4.07034568010935    3.25216391300715   -1.53122088298764
H         3.07944340070272    3.22792631713626   -1.95952504400625
C         4.37612783308827    5.15218377951711    2.44952991395528
H         4.96947557861326    5.48829993407728    1.59708147474166
H         4.80257303075963    5.55465987192349    3.37512250967985
C         2.94160724534860    5.63093565400592    2.23139303935369
H         2.32185857616885    5.40369566465254    3.11405239145517
H         2.91810176645454    6.71638043472599    2.08101806665934
C         2.10578453605186    0.86288959677425    0.63180079204667
C         2.49093780645801    9.43611298853093   -0.98293491292613
H         2.14095495777878   10.45684957375128   -0.92207017126712
C         5.63206404429391    3.13655131434975    1.87672522694447
H         5.72027103946833    2.08648483248140    2.17352438897456
H         6.51189663869517    3.67558152016288    2.25075957668411
C         1.30507522529516    1.74579411649687    2.63659247265164
C         3.38824208300132    6.81969359251560   -1.13903011556437
H         3.71158220644005    5.79118587631187   -1.17855826288894
C         0.30697987299256    1.90238340656256   -0.95252442454744
H        -0.66256111878097    1.40605065298061   -0.88405698685117
H         0.87245838635891    1.45054953038817   -1.76275274897519
H         0.14265402051146    2.95375677627157   -1.17888344539159
C         4.11878906748283    7.83992209177444   -1.72188533915694
H         5.04056104849133    7.61183830618500   -2.23794305544768
C         1.75632384597387    8.41847065776511   -0.39793173625779
H         0.83469379008766    8.61190703460842    0.12867192115841
C        -0.71374198822821    3.09547857310515    1.73048830184650
H        -1.57063677518203    2.56105535939053    1.31824135558165
H        -0.59530633795771    4.02011875989068    1.16676272268816
H        -0.92634048288148    3.34703870318368    2.76676013151387
C         5.51415804427392    3.23051030054923    0.37417638157836
C         3.25964673702637    0.02018172167151    2.80466629046848
H         3.58288970972902    0.47794455951159    3.73841588132928
H         4.14199089792946   -0.23141553772003    2.21966949306991
H         2.74280733875902   -0.90877879980127    3.05267101863498
C         3.67881029355576    9.15813608726930   -1.65068057387855
C         4.48233986945709   10.26717153794140   -2.26092095277004
H         3.83182597616887   11.04246048154078   -2.65889547792525
H         5.11694811626297    9.89254037153148   -3.06002141160844
H         5.12270605257181   10.72275920414474   -1.50488205742088
C         6.61572937113339    3.39609772437090   -0.44936623502621
H         7.60668699132185    3.45897404506463   -0.01971097446566
C         0.51148965686520    2.25570348892228    1.61229001424160
C         5.17248567857646    3.41215247026243   -2.35851380432768
H         5.03523874404048    3.49136840544195   -3.42753761705991
C         1.09682617575827    1.92320645441665    4.10786410709290
H         0.44770283381779    1.13626915667992    4.49807094692096
H         0.62949556439395    2.88263356318692    4.32151096890054
H         2.03925884559828    1.87304135864026    4.65223864664397
C         6.44608581518067    3.48014063281424   -1.82109263968705
H         7.30427670363508    3.60689883112922   -2.46467196668279
C         2.21075931780235    7.11835750158671   -0.48195503689165
C         2.74402363017672   -0.07756327009656   -0.34491012419500
H         3.71275160578762   -0.41814780742120    0.01131723333711
H         2.88866288220073    0.40431944857593   -1.30835091207097
H         2.10345225192592   -0.94963280669741   -0.48698295613844

