61
CSD_code = QILVIQ | q = 0 | S = 0 | Stoichiometry = C15H34B8IRhS2 | MND = 10
Rh        0.92357511069861    0.14914191876155    5.71550806016778
C         2.55857117343358    0.86656411727000    4.31355046120957
C         1.36879762673988    0.64150287651583    3.57526700454495
C         1.03733745576175   -0.75991326705017    3.67584391640065
C         2.04830786464818   -1.39450170250784    4.44560133200018
C         2.95389185676134   -0.37861754014539    4.89325901680409
C         3.34431006816670    2.13918352768491    4.38317973827305
H         3.77271885332762    2.27619402200783    5.37357689618305
H         2.71921762228825    2.99992774023052    4.15848764738489
H         4.16127719734945    2.11079459260089    3.65930764364303
C         0.71449590016349    1.60941219968252    2.63959929256382
H         0.84662611332006    2.63581929288135    2.97554039515231
H        -0.34897975930517    1.40223814548661    2.53976060147711
H         1.16482516933897    1.51884470186154    1.64866131662929
C        -0.01739315046137   -1.45425841899135    2.87242673638285
H         0.37622600267750   -1.70930571509667    1.88646170772876
H        -0.88980653043784   -0.82024329385311    2.73635880488866
H        -0.33780268232740   -2.37096887735775    3.36031939851303
C         2.20436597566788   -2.86444481943019    4.66448498511270
H         2.84823691692740   -3.28608693350268    3.88972994336838
H         1.24280484991654   -3.36936697825740    4.62155008150008
H         2.65758287295762   -3.07132217648147    5.63107550837213
C         4.22525218249336   -0.60950945173929    5.64593770518366
H         5.05186761395495   -0.74027070876088    4.94502944200116
H         4.15808473871968   -1.50162442921361    6.26333951120587
H         4.45434777105639    0.23787131332557    6.28814140480678
C        -1.58408736923986    3.62716137644480    4.84450623387022
H        -1.46082127307554    3.12669037010218    3.88558795554468
H        -2.64044292072998    3.62538216122006    5.10358078468858
C        -1.03083485494539    5.04518562351907    4.76563968226788
H        -1.65560245117083    5.61984159943972    4.07584820018294
H        -0.02133015273794    5.01163417622575    4.34953753913048
C        -0.96151718781219    5.75994685894843    6.11564794524771
H        -0.27478317300603    5.21097445314474    6.76344764490901
H        -0.54236432808122    6.75746811330593    5.95866403151172
C        -2.31366073449422    5.89109991796016    6.81102082086922
H        -2.73983120210372    4.90401397716872    6.99372615250090
H        -3.00430390465103    6.44273282919324    6.16406430716083
C        -2.22034394381514    6.63912977270518    8.12560969671165
H        -3.20386229803753    6.79140112255511    8.56293597327974
H        -1.72363126224033    7.59924234272712    8.00619159783899
B        -0.75837410082105   -0.73026557832190    6.68070641782718
H        -1.05001446312209   -1.77956245023661    6.20983769893768
B         0.66129855833574   -0.65943033382543    7.76605244801355
H         1.32830563373658   -1.59302425914521    8.04322281181822
B        -1.30219070668222    0.75826918316668    5.82855391036693
H        -1.83649572141741    0.71113060699383    4.77399962809671
B        -2.12813683939131    0.19916752788283    7.34551878578829
H        -3.21433329330007   -0.25941824988452    7.32856600657174
B        -0.97013676557191   -0.47097653234169    8.48302257473845
H        -1.33087376321296   -1.35050461526779    9.18091026152622
S         1.58905385930822    1.00088724608712    7.80404894899660
S        -0.66591556105446    2.62702899944248    6.10781848975278
B        -2.07352737636958    1.90826849021614    7.13143352478177
H        -3.07053977659278    2.51320613037854    6.94761208087409
B        -1.61016657158414    1.24635942318090    8.70679594579190
H        -2.31113493509848    1.38777257607194    9.64474046043979
H        -0.58418979390491    1.93748639875996    8.87617560173065
B         0.20548548473941    0.72124958009264    9.03391258169727
H         0.61410051684339    0.72869728666412   10.13805711712264
I        -1.08003614255235    5.55549373950688    9.61630758791519

