51
CSD_code = QILVOW | q = 0 | S = 0 | Stoichiometry = C20H20N4NiO2S4 | MND = 4
Ni       10.05029835852747    2.55783913352184    1.96003872758050
S        11.13097445110623    3.47943599816271    3.59379307221613
S         9.98120681149945    4.30248475919244    6.16788601751822
S        11.87358851446285    2.26383466404251    0.83099773532980
S        12.05042779777252    1.24707438455366   -1.91831238256744
O         5.15703435859891    0.70092851809007    2.15967662246730
O         5.17278923909436    2.29252295026579    0.07336787696684
N         8.59157807086434    2.22874245854537    3.21840186382390
N         8.67906322016224    2.81871548046646    4.43391161004970
N         9.07308393225265    2.36413575314973    0.27733941963016
N         9.77831491156729    1.95111005616267   -0.80216382427603
C         9.78325980046495    3.44764073558673    4.66853832409705
C         8.37940736330043    3.99745311256721    6.97395366438306
H         8.29380090411562    4.72703713275364    7.77224007368331
H         8.36533251010581    2.99139868659002    7.37894287843333
H         7.58911302635658    4.12328476849432    6.24288116125324
C        11.05293906049153    1.83582517574627   -0.62338788368739
C        10.81746193779445    0.95282110149062   -3.22314946196710
H        11.28811138614613    0.29767412185817   -3.94839523851044
H        10.54992216346137    1.89686675466830   -3.68546731300807
H         9.94485135672825    0.48528054522502   -2.78172377295836
C         7.63242613792266    1.37639419016334    3.02964076238918
H         7.51257432859739    0.97897911191291    2.02998597785850
C         6.62636128508046    0.97414160452643    3.99498417585339
C         6.86088259450063    0.90861241834889    5.36744285026167
H         7.85539628873350    1.10496716645980    5.73166225565388
C         5.84764956853191    0.58484613176937    6.24842091889874
H         6.04793796520111    0.53413857679987    7.30762010979260
C         4.57383477857900    0.33287998081485    5.76933666803248
H         3.77255794182536    0.09448253771777    6.45245310466968
C         4.31644717333185    0.37687870092136    4.40904190514837
H         3.32056147395444    0.16789361191002    4.04953260253453
C         5.33339063240706    0.67080516650849    3.51168694099457
C         3.89466915837853    1.07548704888344    1.65532517433475
H         3.52757832346650    1.95751950965592    2.19501516507611
H         3.16040120853782    0.26378727172730    1.74656981632486
C         4.07663921105560    1.41120739572025    0.17348839021526
H         4.28560615789069    0.49510625853382   -0.39316187508257
H         3.15044147710338    1.86622391827753   -0.20259247209688
C         5.74371628183995    2.48268688018225   -1.15033499462266
C         5.04007848208238    2.39964001573666   -2.34356479214903
H         3.98708519287910    2.16334128233475   -2.33605056990991
C         5.67760561916407    2.63499527406569   -3.55053323936302
H         5.11270519713644    2.57393820517461   -4.46849786579718
C         7.02437693763881    2.95266452668025   -3.57954464840673
H         7.51414261902538    3.15082298192636   -4.52051099950210
C         7.74214843534416    3.00841543347928   -2.40086503878652
H         8.79031294390555    3.25605864649109   -2.41430703469762
C         7.12916866257240    2.76164800081667   -1.17349562458157
C         7.84508916184311    2.73637154269497    0.08831373193062
H         7.26075558660459    2.97886031863092    0.96656943456353

