47
CSD_code = QILXAK | q = 0 | S = 0 | Stoichiometry = C12H24I2N6P2Pt | MND = 4
Pt        0.00198795226013   -0.00089128234098    0.00145877926371
I         1.50952377561321   -0.22518941542156   -2.10251932737119
P         0.95509091211733    2.00604399711219    0.56294535117509
N         2.25632137040397    3.48506651632075    2.47073867755258
N         0.58551556658156    4.65831977982673    1.15371336586713
N         2.72077543338586    4.07024001665383    0.16177420903677
C         1.77450480235373    2.14290167130842    2.22662658844464
H         1.06106332764625    1.87057808257376    3.01309064081112
H         2.62043949328068    1.44482319728901    2.26975610986455
C        -0.15011251587217    3.49448843065708    0.70929750907468
H        -0.59956031687686    3.70655686988057   -0.26934881357132
H        -0.95634819990911    3.28722052922991    1.42249245268032
C         2.30383192307237    2.81547451646130   -0.42724410910192
H         3.16740664777838    2.14231417864708   -0.48806889667569
H         1.94839960596456    2.99802666487770   -1.44851748657279
C         1.17326849012637    4.45523484294222    2.46805831689059
H         1.57563780554625    5.41329330207020    2.81105861958553
H         0.39507738834312    4.12521062947540    3.16133041131696
C         1.63242020798963    5.03124467659352    0.21656693466587
H         2.04438388564416    5.99431290533035    0.53334869485174
H         1.19950424432651    5.14022381799730   -0.78164094529100
C         3.25941771704182    3.88842801799598    1.49890114962845
H         4.05217219875895    3.13594317719998    1.46694619521437
H         3.68581077284108    4.84149818632281    1.82661463112645
I        -1.51127730518158    0.22497200301772    2.10231591039647
P        -0.95529466023596   -2.00570642210904   -0.56339450720471
C        -1.77491505992414   -2.14297504728003   -2.22688132872277
N        -2.25655092627364   -3.48523598160303   -2.47080634215000
C        -1.17330962920481   -4.45518690886901   -2.46811538756619
N        -0.58542152177258   -4.65807391116845   -1.15379194527659
C         0.15008604754331   -3.49411914648761   -0.70947873266814
C        -2.30365725714904   -2.81538136718455    0.42717108481992
N        -2.72059203586862   -4.07024047046018   -0.16168037000129
C        -1.63217652172960   -5.03116150255359   -0.21654402743142
H        -2.04407258550091   -5.99427851217917   -0.53327850319005
H        -1.19915404029412   -5.14010164600061    0.78162253424445
C        -3.25943254220749   -3.88862203849400   -1.49875839233337
H        -4.05228450657856   -3.13624451258977   -1.46675623904329
H        -3.68574341119313   -4.84177928783518   -1.82632224661588
H        -3.16730567968407   -2.14233607515895    0.48813558497153
H        -1.94804899200725   -2.99787476666304    1.44840382313826
H         0.59955773041837   -3.70614963557356    0.26917517323512
H         0.95634883580414   -3.28692697361868   -1.42266742441981
H        -1.57552153686446   -5.41333809690568   -2.81103868941543
H        -0.39521686316275   -4.12505905594572   -3.16144688453287
H        -1.06161547850658   -1.87054575698403   -3.01343143566132
H        -2.62093454884798   -1.44499819635930   -2.26981071304270

