55
CSD_code = QILZAM | q = 0 | S = 0 | Stoichiometry = C27H21Cl3N2PRe | MND = 6
Re        5.01059598357739    1.47520022363570    6.30137409182408
Cl        6.51058500448476   -0.28514446805664    6.23717484612588
Cl        5.32740015115404    1.63274387472860    8.55659075450997
Cl        6.52228689540201    2.87475934612045    5.55635795593230
P         3.45432333328612    3.39850199376480    6.36602390024499
N         4.50179859466024    1.02695378073791    4.08543743397234
N         3.50788953385121    0.46509237293266    6.29754178249296
C         2.15390989483684    3.39609322267072    7.63627530576691
C         1.90975381429821    2.26197789236101    8.40121719654550
C         0.91131027433345    2.28142692806330    9.35981955551797
C         0.15893485740304    3.42694854868096    9.55831381089460
C         0.40212291349028    4.55906388195469    8.79605665578707
C         1.39718142975715    4.54799692252201    7.83704611596806
C         4.21129146383627    5.02989437661390    6.58549060385950
C         5.14091243768167    5.14263552624984    7.61706300188597
C         5.75222184209604    6.35718659112272    7.86373903684814
C         5.43748397489738    7.46137545259549    7.08689957959673
C         4.50481846137735    7.35238876856803    6.06860508100232
C         3.88762868429002    6.14002080267693    5.81381667998049
C         2.54432256106845    3.45151447088558    4.79999439614700
C         3.23604813903145    3.81306587626467    3.64454812730759
C         2.62358581332908    3.71083303639604    2.41054582522232
C         1.32764536220090    3.22708138686576    2.31721761932394
C         0.64307024463437    2.85148604211542    3.46091849405866
C         1.24708987482373    2.95988585154159    4.70076735398942
C         5.12731196027370    1.32087978733682    2.96858396430650
C         4.61069968339860    0.96761675686745    1.71568091040009
C         3.40949546052998    0.30951824790011    1.63163649031586
C         2.71884043640752   -0.02097125386780    2.81752937742795
C         1.48049027501679   -0.69181906471622    2.89001711981878
C         0.91253229360558   -0.97279810616469    4.11120886696423
C         1.52228792711631   -0.61990691714704    5.31481695071872
C         2.74347180913596    0.04615202895339    5.30150437736770
C         3.33801160841287    0.35737428613911    4.02386710294601
H         2.51100621656723    1.37663271438165    8.24642108042727
H         0.72553013765286    1.40229360517779    9.95806913585364
H        -0.61581572904502    3.44159690789885   10.31059061133401
H        -0.18309548521017    5.45308748536104    8.95286422188551
H         1.59325002737297    5.43043186355450    7.24374595486287
H         5.37870854898702    4.27074670445297    8.21401558784075
H         6.47822203193760    6.44309130285700    8.65830343952661
H         5.92024323101405    8.40908290098453    7.27469431797422
H         4.25703047131054    8.21506029387089    5.46722364804979
H         3.15948450775875    6.05762032697741    5.01867171197433
H         4.25720294067390    4.16094815845579    3.72728065673089
H         3.15878609559347    3.99871294776058    1.51756204842712
H         0.85368153735377    3.13929695757766    1.35102539960894
H        -0.36324274879866    2.46715186838486    3.38686871281841
H         0.71834954162904    2.66096102953227    5.59453334064715
H         6.06368656899364    1.85288129250253    3.06255744050870
H         5.16766152442401    1.22207624490239    0.82771707387534
H         2.98878259638762    0.03312665702871    0.67614599690913
H         0.99024513643304   -0.98494306631373    1.97441760158936
H        -0.03593276568584   -1.48856541558332    4.14505575487937
H         1.05756262096620   -0.85721924708030    6.25845589922222

