47
CSD_code = QIMNAD | q = 0 | S = 0 | Stoichiometry = C12H14B2N18Ni | MND = 6
Ni       -0.00000577298863   -0.00006642924478    0.00000283753585
N         3.09027560181253    0.66079515270645    1.23216966271296
N         1.84500310413831    0.39876776560901    1.37687696897399
N         1.54089571330560    0.33329884799653    2.67556008646989
C         3.64681181159869    0.77746060394274    2.44894609834333
H         4.68627922980756    0.99617983648697    2.57913153913589
C         2.65969577532751    0.56808719328220    3.38652166779292
H         2.67402331720054    0.56937349335950    4.45575882767303
B         0.11134133615342    0.02656760000699    3.12531203776666
H        -0.00749231427878    0.00218605955085    4.30010200524984
N        -1.72825364451490    2.05834999217304    0.79154378525304
N        -0.92553116503793    1.12588788465420    1.14452188558486
N        -0.80182940551407    1.07365379873499    2.46225456739632
C        -2.16424642540457    2.66181680352670    1.90326627688546
H        -2.85354427344102    3.47937390853778    1.87229143313953
C        -1.57431014625807    2.03817433882578    2.98303589313828
H        -1.65050362073834    2.20981919998094    4.03578802998888
N        -0.72180982403631   -2.58783661268253    0.79537839482004
N        -0.37975073013936   -1.40563219537223    1.14708534529588
N        -0.28740482495208   -1.30568917388197    2.46464769353202
C        -0.86569871319718   -3.31727627883445    1.90786108810354
H        -1.15184710820882   -4.34772294108367    1.87671932387101
C        -0.58739217921624   -2.50388206339897    2.98659000993053
H        -0.58328663846046   -2.69073102859597    4.03944270126321
N        -3.09031906026602   -0.66066646486942   -1.23221362954844
N        -1.84499807147756   -0.39886619877337   -1.37690296422683
N        -1.54091290413201   -0.33319505062463   -2.67558053895129
C        -3.64690949964024   -0.77697988979649   -2.44899776643184
H        -4.68642420947826   -0.99545895474624   -2.57919856127734
C        -2.65977963615110   -0.56760879012398   -3.38655828338232
H        -2.67413857124693   -0.56866659802064   -4.45579449821711
B        -0.11132285819682   -0.02660120028831   -3.12531343504052
H         0.00752120679856   -0.00220002766279   -4.30010205005010
N         1.72813462907077   -2.05857611946390   -0.79159904400660
N         0.92549177934793   -1.12603245600512   -1.14454274251358
N         0.80174900182016   -1.07378118299327   -2.46227305090531
C         2.16402611074414   -2.66208439952221   -1.90333832655673
H         2.85324186870040   -3.47971255552648   -1.87239045407401
C         1.57411187471716   -2.03838031706448   -2.98308481118696
H         1.65024813188042   -2.21003020886794   -4.03584031643920
N         0.72193441789026    2.58767284960571   -0.79527971499134
N         0.37978663080700    1.40550926257613   -1.14704357224895
N         0.28753347887961    1.30560688663328   -2.46461288557356
C         0.86599111850127    3.31712217166875   -1.90773524858890
H         1.15224240542944    4.34753929337406   -1.87654736347422
C         0.58768517962143    2.50378093408861   -2.98650487238011
H         0.58368787342294    2.69065326012268   -4.03935402979184

