33
CSD_code = QIMRIQ | q = 0 | S = 0 | Stoichiometry = C12H12N2O6Zn | MND = 6
C         2.58065540690017    4.01329307462676    6.70839782821912
C         2.18253539607932    3.05561544892632    7.84008523931842
C         0.94156295748785    3.12802473274279    8.45700890310953
H         0.24446372482609    3.88280046065306    8.12872859557667
C         0.65432875771067    2.23155977005602    9.47144962145143
H        -0.29782202587515    2.26153953609806    9.98061159009429
C         1.61488158027363    1.29336431342301    9.82513512383285
H         1.43023366283045    0.57844186612065   10.61143197014603
C         2.82525670128830    1.28854160274980    9.15244412322025
H         3.61139899019948    0.58439531494454    9.38417822964040
N         3.09370945553228    2.15071606854376    8.18143005973560
O         1.73092745785085    4.75733453835107    6.25588172524239
O         3.78720225538909    3.90899261000887    6.32471374590643
O         4.36832511498579    1.28757301484374    5.41849928685281
Zn        4.85429867034590    2.57219160535063    7.25140784634800
H         3.88094727807075    1.93249845510408    4.89338490710692
H         3.79771426492623    0.52599897414408    5.55441321619062
C         7.12805328997284    1.13138156283842    7.79473069198249
C         7.52604865444968    2.08876583685120    6.66273814755968
C         8.76701638846847    2.01632293128746    6.04580822948779
H         9.46412145535486    1.26157409220212    6.37413604835881
C         9.05426812469837    2.91277471196422    5.03136193319780
H        10.00645048750457    2.88282800503813    4.52225933628208
C         8.09373708459824    3.85099665738928    4.67768085192526
H         8.27841476700322    4.56594098585671    3.89141131248861
C         6.88336128412055    3.85584421932925    5.35036732862492
H         6.09725078677326    4.56003479009763    5.11865677589956
N         6.61488465606964    2.99366939041596    6.32137498963633
O         7.97759930512436    0.38692226468418    8.24683992562285
O         5.92131183181244    1.23526130798385    8.17798331695658
O         5.34025713893130    3.85687978009041    9.08426547245348
H         5.82771190261925    3.21202088181146    9.60938936137721
H         5.91079319367785    4.61850119547219    8.94829426615494

