51
CSD_code = QIMTAK | q = 0 | S = 0 | Stoichiometry = C20H20CdCl4N4O2 | MND = 6
Cd        0.19608495716831    7.57001891557807    4.08469913618215
Cl       -3.63087262091712    7.12003275300284    1.47218693651974
Cl       -2.86245260384774    1.83551786843673    0.82087595618249
Cl       -2.78341860624656   10.97132798697941    3.62238504982753
Cl       -3.14052696846786    9.96923063094136   -1.64308458904918
O        -1.66706612529036    6.85808273016922    3.53776467952166
O        -0.33500687836770    9.50121375115494    3.44975646854443
N         0.41587640299160    5.48360620970065    4.82458204519864
N         2.68521619144068    7.15664083528628    4.64174193162394
N         1.31038139282642    7.70344532045082    2.22696178191949
N         0.66287687310976    8.78739103785076    5.98570046695659
H         0.00271019500067    9.54243778972240    5.80878019657703
H         0.54877835431691    8.47989151854991    6.94986446075661
C        -1.84455139180502    5.75458634101737    2.93914292526961
C        -2.82921145543525    5.65614609818243    1.89870907125627
C        -3.13605109653089    4.48852858187695    1.25731022174753
H        -3.88789948074276    4.46873171046665    0.48458828421590
C        -2.46202882014583    3.31676528954313    1.62185637009642
C        -1.49554119336501    3.33758739554495    2.58998695302070
H        -0.97726834337446    2.42682336651783    2.85248721865505
C        -1.15229955649344    4.53529659264306    3.24766742100771
C        -0.10002072410276    4.48342365226273    4.20569028548046
H         0.28903496836234    3.47458497444648    4.41216394327421
C         1.53327726639889    5.24552276551455    5.69896763440282
H         1.65904503575913    4.17548313774004    5.92417591053529
H         1.35893939047353    5.78525227147332    6.63427966802624
C         2.81878009478527    5.75953079891766    5.03040099232036
H         3.67466832979514    5.60321117285058    5.70501247885486
H         2.98667093207776    5.16064263116716    4.13321301457345
C         3.39046347716185    7.46338409489737    3.40307625327693
H         4.38711992938281    6.99470003586403    3.37707123768119
H         3.51439583970816    8.54624852905033    3.34017382165390
C         2.57511295691414    7.02308141072554    2.17663196775177
H         3.13452058725792    7.25892249172148    1.25956044982579
H         2.40771183400070    5.93717077450632    2.20366812048780
C         0.71674612899446    8.08547530622724    1.15420312125060
H         1.14179958285849    7.82879148318683    0.17277930224831
C        -0.47252226812693    8.87168102235649    1.14018819357161
C        -0.94823723936580    9.51075873524461    2.33493536364230
C        -2.16132081705774   10.25435843594097    2.18827835316683
C        -2.83190707955383   10.39001061640436    1.00477617965855
H        -3.75195179666094   10.95093542406765    0.95183897561408
C        -2.30608987161949    9.78195735698618   -0.14054562052863
C        -1.15544066564283    9.04220455123842   -0.07762313069360
H        -0.77455610031234    8.56000772040288   -0.96595128740980
C         2.99473757144705    8.07811429447252    5.72926607370702
H         4.02670698957886    8.45086164557831    5.65738802520425
H         2.89940888285939    7.54311017855132    6.67784759136239
C         2.02439970829228    9.26417351244647    5.75373568230794
H         2.35543971866151    9.97456515130059    6.52613690231189
H         2.03153811184932    9.76673310083983    4.78349751041157

