63
CSD_code = QIMWIS | q = 0 | S = 0 | Stoichiometry = C22H36FeP4 | MND = 6
Fe        5.51792493748686    6.99332387313839    4.41407036233201
P         7.43437091986635    7.90747947546313    4.53414368897818
P         6.22834281949023    6.03916273247760    2.66055753262268
P         3.60909762261828    6.05671003745748    4.36651620083758
P         4.54419142275651    8.71808667420021    3.66110107168772
C         5.52798039594767    7.09269599801413    6.43713310199521
C         5.88490437041670    5.78673222308001    5.99929053682339
C         7.67101570298495    9.61793713591384    5.16002442519551
C         8.84531837643207    7.11859195580113    5.41283418286440
C         6.98747628962537    4.36542511139121    2.71379771619589
C         5.21354371806505    5.87692330456292    1.13257532120325
C         3.39753914227075    4.27679117920302    3.96590427324445
C         2.43869488921115    6.13814001882275    5.78379157553344
C         3.90751333515941   10.03047233561995    4.78050324349689
C         5.25763842625964    9.76293453737532    2.32324592152796
C         8.17960878550966    7.94017936952605    2.86870750281525
C         7.64273072686703    6.99304094832044    1.99491586423142
C         8.17202580951941    6.85778453035865    0.71878464601660
C         9.21389149722047    7.67413003985736    0.31201410009633
C         9.73801099045034    8.62058117566862    1.17697971695316
C         9.23098520751548    8.74789842891719    2.45922947643496
C         2.97630472069208    8.21482543316844    2.85984621206466
C         2.56068201146439    6.91228691838217    3.14204569817387
C         1.40573221500016    6.40893824970288    2.56047481000828
C         0.67323122847384    7.19784542441311    1.68951379465414
C         1.07795585966801    8.49411877196119    1.41658879229458
C         2.22360561097113    9.00561067643700    2.00250854584661
H         6.30482712768021    7.69166511400254    6.91143553451303
H         4.57512123299079    7.23313822757426    6.93770974816858
H         6.90565211985718    5.44812213149007    6.14636953286144
H         5.17892711165921    4.98088310654749    6.19777152559840
H         7.77518349291930    6.11954807289449    0.03635291305874
H         9.61908507975027    7.57343490584467   -0.68507914841127
H        10.54829862095184    9.25815651975031    0.85248188693275
H         9.65431935177343    9.48211568091073    3.13068153941844
H         1.07532244798800    5.40207798557460    2.77539031935510
H        -0.21922650657847    6.80230392873185    1.22531074582306
H         0.49782050427787    9.10822698737624    0.74215060902900
H         2.52610661538231   10.02031468457180    1.78568714682071
H         8.72310449564557    9.90364121808337    5.16238558928497
H         7.09370778443494   10.31626895850442    4.55688136117440
H         7.29102395036911    9.64550558388830    6.18189352373191
H         9.76164229652713    7.67620688366132    5.21203623194377
H         8.64456326142624    7.10901597713320    6.48394627073467
H         8.95797921301112    6.09517781438971    5.05496598041901
H         7.48053409455486    4.11901832389797    1.77239425075083
H         7.71174813462496    4.35482643211095    3.52815604263658
H         6.21028592230658    3.63432423098207    2.93444840001117
H         5.67786237013979    5.21751925922671    0.39911312042976
H         4.22909211209722    5.48959621011124    1.39629420673421
H         5.07546464989672    6.87177987452674    0.70665249171310
H         2.35021229011951    3.97685041540544    4.00423319429675
H         3.81231316649153    4.06691885899059    2.98170253495786
H         3.95950678330226    3.70819022292774    4.70765810464477
H         1.47090233859509    5.73195392418930    5.48511338497739
H         2.84044293105247    5.56325680626457    6.61788079749614
H         2.31789127965757    7.17887109046740    6.08433615793366
H         3.26170275293276   10.73143491689645    4.24985473366291
H         3.35088913659697    9.54289040785411    5.58073546304020
H         4.75380264797411   10.55690106445249    5.22072261624137
H         4.70163647862575   10.69044347531933    2.18551599608570
H         6.29512698483908    9.99465755062753    2.56516513271129
H         5.25391069418733    9.18401659558183    1.39855374710754

