87
CSD_code = QINJAB | q = 0 | S = 0 | Stoichiometry = C34H36N6NiO8S2 | MND = 6
Ni       10.56860504718768    8.36700337341658   -0.00012616247281
N        10.14627207839028    7.30223391102855    1.54831364407416
C         9.45410553780017    7.81022347774392    2.56609614068436
H         9.14917427562646    8.84318570660696    2.48420700585265
C         9.11273695212947    7.08030423789032    3.69177421274202
H         8.53816663697250    7.56727049434591    4.46432725296732
C         9.50034210180808    5.74589367259881    3.77472991021520
C        10.21437264736248    5.21999418387336    2.70112697549795
H        10.52023793429198    4.18562347447679    2.72710745994245
C        10.52160194327593    6.02576644758807    1.62155726516523
H        11.09230307182097    5.63257507996924    0.79284139316411
C         9.17266196883528    4.82088908465183    4.91105320237927
O         9.19619246585362    3.61636665111323    4.75907377486061
N         8.87355971306976    5.46707939338692    6.06860204281166
H         8.89580479692802    6.48796033849327    6.07415310757969
C         8.49521305817737    4.94224994267250    7.29379454440067
C         8.13527560320530    5.82655522168866    8.33412325069250
C         7.75678382518531    5.30325323827038    9.57350480252070
H         7.48549847719838    5.99229162764552   10.35808176891469
C         7.72275342813799    3.94266817969324    9.81019047637228
C         8.07756735028073    3.08415837779910    8.77001018052704
H         8.05597829724389    2.01669545913436    8.93432502265364
C         8.45633538467761    3.56853428254247    7.53731901795517
H         8.72632534880380    2.89192654050902    6.74386989311737
C         8.13833606420858    7.28605604542937    8.14150408626693
O         8.47096207120909    7.85969372204309    7.11602106430156
O         7.72809080891480    7.96295645409617    9.21602621602807
C         7.69865925734975    9.37675252696382    9.08944561412845
H         7.03447559512395    9.67169818982667    8.27440023650539
H         8.69974604375130    9.76085260010316    8.88260150107573
H         7.33146647355915    9.75740128453088   10.03870958274207
C         7.31587343503756    3.39098863232281   11.14132953796291
H         8.11982603108013    2.78927470156471   11.56317261195716
H         6.44295421061842    2.74854495147362   11.03316318080017
H         7.07614735822078    4.18996996501673   11.83764256648301
N         8.77287115974046    8.72992643794290   -0.24252692059523
C         7.89035897802639    9.41793628277301    0.12748486075622
S         6.64484783545367   10.29379519760165    0.56302829059656
O        10.99659442666658   10.24910804429263    1.46301578077731
H        11.94259039456992   10.24447764697814    1.65144613536486
C        10.40485628704993   11.41537339149523    1.99447879303997
H        10.84230494222048   12.32190366920340    1.56212511049223
H        10.51222356050798   11.45426715774722    3.08401496292272
H         9.34425532440556   11.38170871045060    1.74620445897249
N        10.99104103794964    9.43182380343514   -1.54845219234210
C        11.68344661009363    8.92401729182424   -2.56616045297400
H        11.98882097453382    7.89118778722695   -2.48414107673730
C        12.02458557234375    9.65399384948413   -3.69187541282413
H        12.59932853206131    9.16719597351119   -4.46440280123600
C        11.63643314310382   10.98823724627724   -3.77495203119767
C        10.92213487967298   11.51394033832471   -2.70142618329589
H        10.61587869598812   12.54818956447243   -2.72749133612212
C        10.61519983524476   10.70813418328263   -1.62180104239377
H        10.04439869047508   11.10117631563852   -0.79309240897286
C        11.96382411691481   11.91327719167092   -4.91132140904072
O        11.93987516625790   13.11779715239589   -4.75941591339550
N        12.26314162621894   11.26711820098971   -6.06882955703883
H        12.24116627286594   10.24622897444861   -6.07433167585037
C        12.64151510922786   11.79199418561696   -7.29399142528615
C        13.00177409306787   10.90773202741813   -8.33424887610029
C        13.38048018944650   11.43108757758690   -9.57354232566819
H        13.65204959616582   10.74208500214379  -10.35805355707756
C        13.41437841547639   12.79167694708182   -9.81021686667958
C        13.05913467770287   13.65013599248779   -8.77014179150709
H        13.08055518843340   14.71759962487786   -8.93447028535929
C        12.68017149612302   13.16571098934077   -7.53753103502930
H        12.40989120491360   13.84227943788233   -6.74414602222711
C        12.99881429287017    9.44822466049205   -8.14164146908607
O        12.66638371566820    8.87456594022203   -7.11610240008802
O        13.40882163949712    8.77133969409494   -9.21626150974865
C        13.43822392427555    7.35754519696945   -9.08970945598800
H        14.10189142355901    7.06258212818523   -8.27425457669845
H        12.43701668127277    6.97341511713986   -8.88351924277951
H        13.80601363919824    6.97694809805165  -10.03875915265146
C        13.82154015107225   13.34341302751723  -11.14124530048294
H        13.01766227764656   13.94510013938515  -11.56327308006473
H        14.69440318763326   13.98589470521427  -11.03284170239431
H        14.06148229918208   12.54445984464363  -11.83751448439319
N        12.36425941955428    8.00380435553783    0.24258246134620
C        13.24611448719718    7.31376627954396   -0.12565101005648
S        14.49133714835724    6.43749391631908   -0.56141327393543
O        10.14098668052586    6.48519688657832   -1.46376274159427
H         9.19495133627377    6.48972369051539   -1.65197947897887
C        10.73243528718120    5.31822785233503   -1.99399313830772
H        10.29477484942791    4.41225749763462   -1.56071054807929
H        10.62500796401109    5.27824833993338   -3.08347064641792
H        11.79304626930268    5.35188496328716   -1.74578742444356

