192
CSD_code = QINJII | q = 0 | S = 0 | Stoichiometry = C71H91CoN13O15P | MND = 6
Co        4.04968098323081    8.36562166721937   19.70817268303331
P        10.76432679051895    6.01925540232164   14.49476272247975
O         8.24118956450000    9.31271285175613   15.23069551006999
O         9.42238669082722    6.37005025833381   13.54540109715938
O        11.86436764673864    6.93904973020343   14.17856260054849
O        11.01512329845641    4.56306755025047   13.85030397005922
O         6.40519081979196    2.91050760097776   15.62114888883034
O         1.47486456074307    2.73628501391475   16.80234746622562
O        -1.83337857457669    5.57312764480324   20.46754528281773
O        -3.01205858472525    9.80256729904473   18.58869366412618
O         3.29669905533472   14.12766702604905   22.61102030437121
O        11.12767000175359    8.63469447136060   19.64015184181036
O        10.33255296721409    5.87080879973239   15.93928483129156
O         7.70372624428692    7.12038971576444   15.90331295894964
O         9.03321556505505   10.35708974749859   12.78057576469766
O         3.98713659349079   14.22216936563345   16.10828456876476
N         4.57069246788080    8.78966647088933   17.69355977134537
N         6.09870777525464    8.80805874394400   16.07772193058631
N         8.32500590299991    4.10017957497873   15.41779614770864
H         8.91222507941358    4.86304411746251   15.77238683174912
N         4.44001273587065    6.56085398305238   19.50808742228177
N         2.36402252450886    7.87019632049155   19.17843524506595
N         3.47019272712306   10.16948739626613   19.93256571774523
N         1.10066027794939   14.03501346240627   23.04465803443200
H         1.11123740741049   14.97510074020013   23.40522036878039
H         0.23054581281247   13.53530627148541   23.03846727202582
N         5.86956988614898    8.73496037744877   20.14835290002971
N        11.70829997507451    7.05104782497137   17.90169548187923
H        12.57068330710608    6.70854330521754   18.29476383128330
H        11.31335729295573    6.61880839450246   17.03923344766933
N         6.15559652717324   13.66505709965252   15.97610315832713
H         6.22586849607263   14.03277253181973   15.04184033155070
H         6.98233938904526   13.29219425150585   16.40663611585756
N        -3.39442081643340    7.87688247891746   19.68476082201603
H        -3.91860368893058    8.35598334238012   20.39896607077465
H        -3.16518803140400    6.90303959998057   19.82335870606930
N        -0.75957766866102    5.89886765215490   22.39856582763020
H        -1.62946545407209    5.86331143360312   22.90556019461635
H         0.08818346013511    6.04082244320188   22.92409970012711
N         3.57450209208575    2.88141649964888   16.03078247790826
H         3.23625996927562    2.63790506769287   15.11298659277718
H         4.58887275311321    2.88808729218437   16.13241094334396
C         2.18107126873291    6.52704953148007   18.60885466877417
C         0.68774806535573    6.19739495185006   18.98160468223684
C         0.05202610761049    7.61493054189626   18.99147206211332
H        -0.71180913498299    7.65990538874097   19.76667059859084
C         1.23031639627108    8.46689111002808   19.38520031649838
C         1.08488503460120    9.77732817470098   19.92870490131690
C         2.17693988307757   10.59375340683039   20.07803003834222
C         2.16720980319570   12.06442662005058   20.50695188399969
C         3.57396605072410   12.51109635476356   20.04748107140970
H         4.00456371968946   13.24748406519512   20.72776839252809
C         4.30382244824007   11.20214973644933   20.10499609645445
C         5.65197846550025   11.12225543679842   20.38106386454080
H         6.17124083638193   12.04107479252167   20.59943742571431
C         6.36458524780472    9.94283409503403   20.44362214044764
C         8.20417667919678    8.54257765684766   20.21248937698087
H         9.00225855196768    8.02970696774271   20.74565243059618
C         6.88711732842226    7.82050232667835   20.16282002034465
C         6.77654276038917    6.45590314032086   20.00556589886702
C         5.54641204446569    5.87065302346929   19.62471216222824
C         5.31306257152937    4.39909376836211   19.29519567439391
C         3.96415349583495    4.49948687890746   18.52787454036315
H         4.20917023292146    4.82563743815599   17.51497515313199
C         3.29993184980881    5.67793564702577   19.25471719788686
H         2.95252941942285    5.33135277683189   20.23332550232814
C         2.39701217292509    6.58102997553191   17.09184379098494
H         1.82334403758655    7.38774738699237   16.64718240211243
H         2.10737024474027    5.63840730627451   16.63799523172768
H         3.44420867124448    6.77045883901686   16.87446201418518
C        -0.00640728460416    5.19985689880013   18.06593850296719
H         0.55532410835323    4.27513892659032   17.98567094339814
H        -0.14957794004590    5.58596677568799   17.06334211403100
H        -0.97991365208056    4.95859469045413   18.48200163763853
C         0.60536331418118    5.68202436668048   20.43736411306744
H         0.91503497659265    4.63418288444727   20.46985422204662
H         1.26951993661802    6.27261913523718   21.07352856472323
C        -0.78174076834565    5.71337403632424   21.06310279269801
C        -0.61622672271859    8.12655178680135   17.70138429797755
H        -0.51955577500712    9.21363357562107   17.66155673522888
H        -0.12597842318324    7.72308330777294   16.81823367088287
C        -2.10845580352299    7.78439937090817   17.64354013952973
H        -2.48952847881439    8.05701621274090   16.65780543198099
H        -2.26773079218096    6.72171912403208   17.80631281358284
C        -2.87972350420515    8.59708138990938   18.66958886871653
C        -0.29515160087394   10.18988582338160   20.36150562737172
H        -0.25269253783223   10.97664844997583   21.10251144122451
H        -0.80294984656384    9.34567283922062   20.82288725921764
H        -0.91735950501882   10.52876727841227   19.53471611686678
C         1.06074764822133   12.94707497838560   19.93325756339239
H         0.88774744198221   12.72440247540022   18.88491464863641
H         1.35828484260038   13.98963393958361   20.02011855525188
H         0.12009056700058   12.83299305501332   20.46026370968180
C         2.14717144851324   12.08614647923061   22.05925233849246
H         1.24094519744429   11.61168145348548   22.43334920582748
H         3.00591282427834   11.51657376323696   22.42106203260246
C         2.25822449214661   13.50366544601146   22.59400227534659
C         3.60585944756752   13.06835683872722   18.61431058459964
H         3.04207955674091   12.41056584498620   17.95481937568604
H         3.13718548300263   14.05155205621281   18.58990342716040
C         5.01529236098958   13.20237260594420   18.04516922248599
H         5.61091696625465   13.88287396344199   18.65862745136412
H         5.51718233204619   12.23290841685802   18.02368219666909
C         4.97443905030420   13.75109488213633   16.62827267753776
C         7.81439928551725    9.67460601491895   22.40920184796082
H         7.38637015311466   10.54613902676413   22.89918582218150
H         8.83616508152843    9.54386871259409   22.75769235036960
H         7.22877615926228    8.80064602552638   22.68962024509329
C         8.68444204380699   11.05704189860406   20.51953689056678
H         8.51878738267913   11.38490362544795   19.49737756264129
H         9.72915179489559   10.77328874005995   20.61679879111148
H         8.48854336845401   11.89155442708598   21.18868821575904
C         8.61838072904204    8.73814760041535   18.73217601273593
H         8.33608382478218    7.85709953194397   18.14663472371581
H         8.05786080523010    9.58642914853900   18.32871699786090
C        10.07676520854304    8.94177608261354   18.48137982749790
C        11.01887317159146    7.96893460065629   18.49623683592282
C         8.02775250563184    5.64909650556973   20.24034323740108
H         8.75045486261768    5.78450334848306   19.43584770749069
H         7.81698351771444    4.59365786835269   20.33703455521922
H         8.50147623287814    5.97346137897807   21.16579553595367
C         5.18031586582012    3.62540793539504   20.61491923873355
H         6.08235430432461    3.73400521993168   21.21058636217157
H         5.02589834601895    2.56540729242281   20.43047458412097
H         4.34849130394312    4.00081071772978   21.20589928461738
C         6.35097342090218    3.72679989301329   18.38208570087695
H         7.19722519620117    3.34483523841102   18.95069773179996
H         5.86761090754345    2.85306504408446   17.93492150488401
C         6.86193240863904    4.61380275562742   17.24675153447858
H         6.08827377387221    5.32392656804583   16.94490413812671
H         7.73874886640058    5.18597464834767   17.53472636564644
C         7.18220650462384    3.78295922608147   16.00820288721636
C         3.19021582022641    3.18623090855264   18.41955376884340
H         2.34558376816802    3.16324569325930   19.10851291687051
H         3.84177761994728    2.34691663171220   18.66752702260006
C         2.66077823140372    2.90989109297288   17.01327801281502
C         8.85553915480599    3.45350065620590   14.24053512131493
H         8.58243487664915    4.01313318768070   13.33938327986474
H         8.42510197102951    2.44945316144377   14.18420737941259
C        10.38781529578825    3.38391948771349   14.31728632645095
H        10.66935122702451    3.22739110412955   15.36933639534971
C        10.92590335434751    2.24091400391095   13.46212469775042
H        10.59840037524816    2.36975049352367   12.43417689181853
H        10.57197931230777    1.28515488023484   13.83930481281871
H        12.01183544008586    2.25641037046423   13.48104409758460
C         8.64372068061095    7.49656529888624   13.69609165665416
H         8.34765350185005    7.84166571408243   12.69209556367593
C         9.29787415952353    8.65909210876181   14.48537097711774
H        10.01653125412307    8.23563909855710   15.18949463560106
C         7.28192229068912    8.35896339337513   15.45530498652111
H         8.37982987428052   10.74586567351271   13.37493996418379
C         7.39509769420370    7.23756690851308   14.52183272163739
H         6.56923397401222    6.64068236115070   14.16526075461861
C         9.97149804721579    9.69144579353087   13.59028126242497
H        10.51952475747524   10.40503408858885   14.21755523137784
H        10.67321943287128    9.17610117321333   12.93436249859236
C         5.69664377394632    8.29857521981045   17.26738410426103
H         6.27253979595588    7.54227042399256   17.75805319739221
C         4.15871665285536    9.67374770484005   16.71772003708319
C         2.99074071827884   10.41477257535744   16.59114320163142
H         2.21599200708443   10.33055823021286   17.33798010933359
C         2.84028059964167   11.24141735304661   15.49313978550963
C         3.85024962549919   11.32544564760531   14.50834729636435
C         4.98949901980609   10.54363311387823   14.59488625506889
H         5.74763416147951   10.57300109379726   13.82726607464847
C         5.12830683827770    9.71561485880778   15.69489860527280
C         1.61525951833316   12.08991295990156   15.37118247941300
H         1.14351451107974   11.96521256564657   14.39894488031352
H         1.89645990060328   13.13769930421321   15.47720166108598
H         0.89136543464398   11.84019456798234   16.14286851147547
C         3.69188580382000   12.27890807031170   13.36854358143360
H         4.55196709198695   12.23772778882529   12.70567361850456
H         3.58743618017500   13.29090957546294   13.75812024166939
H         2.79759854087375   12.05189074554500   12.79059815229411
C         3.56887683457904    7.97841626806180   21.45030456808880
C         3.11803525341900    7.59393599453433   22.50445421895924
C         2.57104211586854    7.13310607381994   23.72803174541063
C         3.21187684707743    6.14517129655356   24.47235969239796
H         4.15951049910517    5.75737586563831   24.12826269773598
C         2.65483102554791    5.66060846956677   25.64136766263307
H         3.18112424948406    4.89844269173542   26.19406357451705
C         1.43518935181140    6.15728513965856   26.09155781503874
C         0.78854992048067    7.14943721741072   25.35010914380437
H        -0.15229930857467    7.52903516599541   25.71721831821421
C         1.34663348301304    7.63100030019516   24.18615064069750
H         0.84819824818870    8.40616686250158   23.62104188457074
O         0.79082930324249    5.74953432852527   27.22009844538656
C         1.40375930928425    4.77748660912375   28.03162919798640
H         1.53252746744923    3.83015226087776   27.49768627925811
H         0.72807194819531    4.62655059489190   28.87172571849664
H         2.37403635046485    5.11957924799149   28.40557053353965
C         7.80976035261609    9.86349022308435   20.88331900660668

