40
CSD_code = QINJUV | q = -1 | S = 0 | Stoichiometry = C16H14Cl2N3O3SZn(1-) | MND = 4
Zn       11.84733440535751    8.68323952627041    7.53270858851675
Cl       13.10933366204106    9.66199528522969    5.99501190974355
Cl       12.50109744661091    7.78032364561250    9.44014507273438
N        11.06490354284349    6.94877165501811    6.42099349024357
C        10.38416281831941    6.05856385931837    7.13080427858404
H        10.79976545420341    5.81722491093529    8.09953710491038
C         9.20406822903871    5.48933124170071    6.68408240319777
H         8.66680432381161    4.77485213239946    7.28758551444072
C         8.69231642410874    5.89382033948866    5.45737270018244
C         9.43253994383691    6.79468861156236    4.69737311933546
H         9.09122516483117    7.11558471192715    3.72473845543262
C        10.61586937176724    7.28507837010996    5.21823828258701
H        11.22166390511190    7.99849998399496    4.67626985996719
C         7.38641718545934    5.34737071724345    4.96527206886815
O         7.16126278161706    4.15512277015289    4.93654049625299
N         6.54174765216173    6.33610844233465    4.55619892593400
H         6.83847302025434    7.28387097213528    4.77101454887057
C         5.26942355823759    6.22010296352632    4.00467175789044
C         4.59711819636352    7.39303219370616    3.60995872531897
C         3.34024143994759    7.27402116813036    3.05006510604789
H         2.79963524459317    8.15576557910300    2.73835003494304
C         2.73020981237077    6.03337956928945    2.86411223128711
C         3.40823253193051    4.88133111538787    3.25348808112095
H         2.94907081559077    3.91568984752742    3.11386783612286
C         4.66276596907811    4.97723817329527    3.81642713187370
H         5.18932970476342    4.08778417862122    4.11887804893303
C         1.39175407162534    5.99513071277371    2.25375012981419
O         0.77085608514719    6.96322794439982    1.87879489304943
O         0.90268780978574    4.74140159919260    2.14289704118170
C        -0.38336112795367    4.63867411055029    1.56038115649658
H        -0.38319539238680    5.07194266949210    0.55724229336937
H        -1.12072060326597    5.16921640763965    2.16769617568120
H        -0.61661563426448    3.57745631098299    1.51829230272318
C         5.21911586129881    8.74552975189012    3.77473209606311
H         5.43114468170104    8.95890914353519    4.82142010735201
H         4.54591226055264    9.51375560288182    3.40430189469476
H         6.15525644487670    8.81759422503848    3.22106632021945
N        10.02084282532139    9.39098620999583    7.55193634261516
C         8.94890032453694    9.23536147907177    7.10689536326346
S         7.49110978877077    9.01832186853482    6.52298811010238

