102
CSD_code = QINJEC | q = 0 | S = 0 | Stoichiometry = C40H57CoN2O2 | MND = 5
Co       -0.37877074534292   -0.45759577344836    4.65603677936949
O        -1.34281617107611    0.65984876387494    3.52112863079104
O        -1.20527778658943   -1.87950263083196    3.79167827618690
N         0.16386070434283    0.97674856403838    5.70293982671086
N         0.34367800911989   -1.54307154815421    5.95269618814466
C        -1.26589002882320    1.93168778048134    3.34643967679832
C        -1.92462751053578    2.57464785749459    2.24562573417057
C        -1.78919381502006    3.93104600145927    2.09390210673141
C        -1.05832372680005    4.75948349786166    2.96643568336057
C        -0.46485770114610    4.16092054902601    4.04414148277593
C        -0.55073655906115    2.77100783423080    4.25093919988500
C         0.04052915416361    2.23329070650074    5.41969051478349
C         0.68862140365911    0.57047425042666    7.00161063434578
C         1.71898497734447    1.48848514834009    7.66179507929794
C         2.16776261043895    0.87655162721166    8.98779929861211
C         2.72942209031745   -0.52655374690462    8.79244546967597
C         1.70726253674293   -1.44084476108455    8.11956254542526
C         1.29320791737695   -0.82167508947016    6.78550246377679
C         0.11873079008778   -2.80390194592695    6.13246641219830
C        -0.63707878459740   -3.64267726146608    5.27681521726063
C        -0.75430891444275   -5.00316163725940    5.62347986316603
C        -1.41173101580478   -5.89113696909659    4.81717619114345
C        -1.92918344812066   -5.39469464785980    3.60529279955119
C        -1.84630713056056   -4.08557273585088    3.20611279925763
C        -1.22314649165091   -3.13155695697755    4.08016200278697
C        -2.76465241618080    1.74256633361234    1.28697071168410
C        -3.91126449841105    1.10812518993852    2.08496646742374
C        -3.38022051544120    2.56831942808413    0.15194434630887
C        -1.88918729705690    0.65301605276904    0.65616797073480
C        -0.98135052260764    6.25030217521974    2.67750987179386
C        -2.39841214655396    6.84067338988998    2.67954570383520
C        -0.15039075490415    7.00423241985818    3.71944724655578
C        -0.33123500181203    6.46405817434896    1.30342628457955
C        -1.58872067267223   -7.36461952387860    5.14774857728266
C        -3.08762117807315   -7.69321567853090    5.19343066135607
C        -0.97955547010333   -7.73644224236339    6.50251207338625
C        -0.90469344278296   -8.21376321798472    4.06724717295969
C        -2.37471802032215   -3.62753553245740    1.85434948523610
C        -3.46095191866721   -2.56802441824190    2.06737884988267
C        -1.20476416505428   -3.03491387894990    1.05681907165239
C        -2.97983273156158   -4.76677223312712    1.02647088921532
C         1.82141294792995   -1.70131896166728    3.28886926711689
C         1.19791909331736   -0.56624958572001    3.55180063776251
C         1.63301174535378    0.72077456291507    3.02213562719317
C         2.70903083865674    1.37478626384584    3.44346583602908
H        -2.27173020359091    4.40351932955325    1.25552615060460
H         0.09629501896106    4.73264121916206    4.76695166730882
H         0.39016490222436    2.97422566784612    6.13598922506944
H        -0.16979893497430    0.46687363196770    7.68546838749838
H         2.57158018845800    1.61411989094643    6.99111692396038
H         1.29408368707243    2.47231561398958    7.86564248995561
H         1.31401140688360    0.83234260523660    9.66842044038591
H         2.92441411991350    1.51651415568945    9.44523531881540
H         3.01671411992257   -0.94703447982937    9.75790454578972
H         3.62559164362535   -0.47457590205951    8.17027272059157
H         2.16585790718460   -2.41851912203513    7.96290795083507
H         0.83294021613019   -1.56375201929519    8.76347620105563
H         2.19706761258238   -0.69695098002202    6.17045714025842
H         0.56008452390669   -3.30405152667666    6.99225654414990
H        -0.29850794793679   -5.31613612605829    6.55027304877070
H        -2.41269261244512   -6.10022208415278    2.95157691145642
H        -4.52194520581424    0.48266701285998    1.43787203154045
H        -4.54239753813109    1.88368700356289    2.51646428952155
H        -3.51531562486662    0.49479321734337    2.88728318889145
H        -3.96298840602092    1.90893405900576   -0.48835398633215
H        -2.61137782853210    3.03415839864250   -0.46105851407647
H        -4.04967216008320    3.33580164311491    0.53494669433494
H        -2.48030276631349    0.04903117128845   -0.02837499891138
H        -1.47891626160977    0.00670849914094    1.42398719023206
H        -1.06990933208046    1.10494803010147    0.09906710967862
H        -2.35966964910111    7.91256838393057    2.49571035417770
H        -2.87355571241318    6.67194791260227    3.64374144674575
H        -3.01821625556611    6.38675722302471    1.91152152876039
H        -0.11824506398419    8.06165975090943    3.46387580287070
H         0.87143569602105    6.63284852353767    3.74589961214975
H        -0.58937626196462    6.91122641172015    4.71015033378984
H        -0.24988887696350    7.52746997347796    1.08700606537987
H        -0.91399980813162    6.00017225488144    0.51269976313688
H         0.66665364686119    6.03064949056138    1.28959458831952
H        -3.56446233670440   -7.50265846701315    4.23613079410751
H        -3.58176992210387   -7.08315208762173    5.94678107950455
H        -3.23613675740275   -8.74156842364363    5.44505950833917
H         0.09338427973526   -7.55872073458573    6.50980679664306
H        -1.14630935034766   -8.79375651710251    6.69931616550489
H        -1.44086287757797   -7.16727533803248    7.30632768723667
H         0.15542855349536   -7.97381296167586    4.01735428094364
H        -1.33968791780121   -8.03489848540539    3.08802378264265
H        -1.00975433848886   -9.27214644551153    4.29788897327827
H        -4.28391395357704   -2.98260635454054    2.64745467281413
H        -3.84759793447307   -2.22988368071976    1.10859527481495
H        -3.04880168995844   -1.71767160977425    2.59753273687380
H        -0.44482770356924   -3.79553982420887    0.88552041784606
H        -0.75331647067352   -2.21083147307678    1.59942408447102
H        -1.55327067799907   -2.66946610781948    0.09354682758790
H        -2.24591805414862   -5.54369500371935    0.82259965430899
H        -3.31631882627431   -4.36838864239497    0.07125998586725
H        -3.84109002979015   -5.20657992931606    1.52527960755934
H         2.68602746614634   -1.71247840670935    2.63718518650296
H         1.51147192772214   -2.66169299553939    3.66535910478382
H         1.01763884107382    1.14684895700322    2.23950012016189
H         3.33955912074485    0.98203752205716    4.22477472985418
H         3.00122617566894    2.32125258120738    3.02098873344356

