96
CSD_code = QINNIN | q = 0 | S = 0 | Stoichiometry = C47H40ClN2O2P2RhS | MND = 6
Rh        5.09527942497809    4.52200781588329   21.94464824285866
Cl        5.02328674405904    2.17739973884979   21.80716470314806
S         4.95333502001434    4.89600529157266   19.66004104642779
P         2.78441184376730    4.54616516582816   22.00958022841103
P         7.41103514898664    4.47400653223506   21.83580833910202
O         5.19814754457114    4.35192587364579   24.02600538126278
O         5.70872571111952    7.55602740365029   26.64092268633056
N         5.13416636517534    6.50957748452391   22.13085194727584
N         5.25743870970110    7.14940054072817   23.21275446666020
C         4.91150204724911    6.62101269102713   19.73859640065788
C         4.78594307773941    7.37279294292530   18.57018189201780
H         4.71575800370449    6.84966074336350   17.62894241151306
C         4.75072523901548    8.74704762105652   18.62775359580451
H         4.64945267602275    9.32030593165963   17.71845032174362
C         4.84604987016815    9.39862789235989   19.85467571201092
H         4.81841737690369   10.47682547698927   19.89701096581497
C         4.97449825370315    8.67273424678019   21.01581031740830
H         5.05252578242362    9.16187009574393   21.97259699001821
C         5.00840193287122    7.27556282798466   20.97725626499149
C         5.36993204063560    6.68296123247082   24.45756534548660
C         5.54576367751118    7.75030083171916   25.45039244637649
C         5.52123456141775    9.15677743907665   24.89286575839595
H         6.31442652072778    9.27512488546205   24.15891999887753
H         4.56869459753539    9.34362836516919   24.40381724125070
H         5.66162011947055    9.86331667390156   25.70698827690423
C         5.32181203750286    5.30149943388033   24.83457262753793
C         5.39850195535857    4.90776839234647   26.28056557870553
H         4.60482275672155    5.38904702486323   26.84722298923469
H         5.30828657047291    3.82587330179607   26.35250824632608
H         6.34214251900661    5.23645754578258   26.70990201604639
C         2.14763123459193    6.21623985335716   21.67454954259708
C         1.75278876534129    6.56243690748616   20.38612794495347
H         1.72251390982800    5.80443406207094   19.61557541396328
C         1.41265809224779    7.87008884245824   20.09252156094629
H         1.11072336598617    8.13272971671716   19.08965216261141
C         1.46910153296359    8.84142293187854   21.07753414125428
H         1.20639033658472    9.86264111791716   20.84554956113469
C         1.87275227961385    8.50514187207793   22.35963959639973
H         1.92255439412041    9.26308229311301   23.12796832327691
C         2.22123220298653    7.20161316649437   22.65716225640304
H         2.55979091287353    6.94484288129269   23.65303788522209
C         2.07044367473706    4.07189875908671   23.61853229395363
C         1.01160372333447    4.74275198025941   24.22260836695826
H         0.57013334824347    5.61060365302625   23.75226873172621
C         0.51670513565085    4.29967819095579   25.43641877429749
H        -0.30367059069098    4.82679177297149   25.90193335268774
C         1.06690299884274    3.18835442129794   26.05306955633441
H         0.68003722841140    2.85298533408548   27.00411209600016
C         2.10793578709627    2.50639163156331   25.44495128419233
H         2.53193156580598    1.63247211828080   25.91711570275394
C         2.60640599282482    2.94157953622778   24.23119765419671
H         3.41420410503168    2.40837389473097   23.74936058157816
C         1.78410051316771    3.52026330214853   20.88269784407298
C         2.34764817372381    2.70711810897195   19.90979184233415
H         3.42003647425349    2.65732803011172   19.79975649348869
C         1.53012885788748    1.95283696988003   19.08482324154238
H         1.97344199861973    1.31975464772431   18.33089807278318
C         0.15484351047855    2.00734774159447   19.22545956624768
H        -0.48053902672006    1.41649091534309   18.58203535646549
C        -0.41031341314680    2.82099533468445   20.19589155957418
H        -1.48395523722396    2.86610584033046   20.30808563701689
C         0.39849898915418    3.57421502890745   21.02346798399586
H        -0.04243895640363    4.20798343032696   21.78063753559926
C         8.33505988587844    3.48340805697864   23.05748301086529
C         7.69782273708136    2.56047994196565   23.87605702853876
H         6.63068522453697    2.41856625169625   23.79764047125452
C         8.43504537579889    1.81810077860892   24.78350632140668
H         7.93523866883235    1.10272412124277   25.41973655708864
C         9.80529864537895    1.98726521808023   24.87330820370812
H        10.37866269277926    1.40744810145386   25.58170208368882
C        10.44543194895867    2.90055862152540   24.04905064176962
H        11.51598103452825    3.03110720041221   24.11331274716992
C         9.71668357654705    3.64547346953949   23.14300454095668
H        10.21750456659731    4.35815334527323   22.50271046741647
C         8.21459309572685    3.92343316706947   20.29573765067989
C         7.65490025173753    2.84258988964111   19.62150422036152
H         6.74326461700145    2.39577195694154   19.99235481527470
C         8.26080224351205    2.34700098787015   18.48190772139725
H         7.81853837783063    1.51107289172827   17.96092778973745
C         9.42932897103328    2.92135842164240   18.01036872934586
H         9.90223178516910    2.53678080332905   17.11859736076751
C         9.99309016246730    3.99226648702114   18.68398006786098
H        10.90598738890822    4.44159547918711   18.32004863576072
C         9.39285051145903    4.49396967282924   19.82448940627786
H         9.83955877375360    5.33550259831155   20.33554307165748
C         8.06043689441819    6.15178753048907   22.11042179169597
C         8.04224388319191    7.07126089418382   21.06378977918833
H         7.75016423568095    6.74838777920590   20.07286979957377
C         8.38934035293623    8.38946195473281   21.29112011022992
H         8.37131298857608    9.09606619340543   20.47454269807840
C         8.74361915835740    8.80386969712788   22.56525336157257
H         9.00931238143647    9.83572835441122   22.74269704063339
C         8.74904198783003    7.89746320627925   23.61322552418567
H         9.01271627921806    8.21976128249327   24.60984517880613
C         8.40117395610176    6.57752527907906   23.39048023574575
H         8.39231733789966    5.87275463556370   24.21137858209645

