105
CSD_code = QINYIV | q = 1 | S = 0 | Stoichiometry = C54H46ClOP2Ru(1+) | MND = 9
Ru       10.10244783582048    2.00455758464491    6.33826609689743
Cl        9.88252581835669    4.31091190952018    6.42334221773736
P        11.25109434630444    2.51456344106277    4.40160777838959
P         7.48330198169265    1.94644670498830    3.75416909581534
O         8.33198759586654    1.99206230954723    4.98930893592972
C        11.70261495718101    0.78306742563437    7.46895051231840
C        11.22933161486266    1.83422854978984    8.29235147928928
C         9.85622029254943    1.93317332735977    8.63234007274199
C         8.91847309573459    1.04391041051437    8.09834636810302
C         9.39590157786906    0.00814158899623    7.24661848339094
C        10.75724414275524   -0.15181569493561    6.97200264551418
C        13.16599094414399    0.55041937914078    7.24119957512912
C         7.45216591629277    1.13673539320219    8.44435590619555
C         6.89476551343995    2.51424179394100    8.07562829777197
C         7.24028031352106    0.83213030586737    9.93026233244835
C         9.69721057475428    3.08021525766058    2.05520753770599
C        10.40369066196204    3.54235164542229    3.14783909633991
C        10.54040749962983    4.93717743009906    3.35697589622805
C        10.01326621491352    5.83402777877189    2.47995320271097
C         9.34771887095956    5.39869581219456    1.31485034338399
C         8.83397770263779    6.31105041283070    0.37226461146769
C         8.20039951949721    5.86963364526540   -0.75544402877193
C         8.05193434307122    4.49424102091052   -0.98167154964427
C         8.52864235704031    3.58438436632344   -0.07882854134248
C         9.19292035706973    4.00680977807616    1.09342174854243
C         9.42076022638784    1.65170730410445    1.80090201821302
C         8.33556036287352    1.05382543885423    2.40976271390607
C         7.95644477058639   -0.25669784742560    2.06315219349129
C         8.67144694005983   -0.95947753340641    1.13663962778976
C         9.80518067860588   -0.39439462987618    0.51474688826413
C        10.57011672927410   -1.10831704653286   -0.43010588529887
C        11.65486523270193   -0.53164589446595   -1.02882985764912
C        12.02074592647693    0.78581101638598   -0.71278284615747
C        11.30034233506283    1.50476018221869    0.19886643348063
C        10.17815276594446    0.93629400088981    0.83756174411445
C        12.79597370760228    3.45351355014510    4.56868986311984
C        13.47672671257794    3.90878933953511    3.43977255387557
C        14.66039059575209    4.60737345269783    3.58460720779415
C        15.16655981116433    4.86901498090463    4.84878662990336
C        14.47648665998132    4.44674356484894    5.97234679862775
C        13.29397204912567    3.74171847024481    5.83213392258383
C        11.74518158145594    0.94594373904829    3.60963294417772
C        12.94254182682924    0.76286341988490    2.92747565884516
C        13.24647898836725   -0.47225902741870    2.38002574288283
C        12.37237792281509   -1.53608501894481    2.51739816746960
C        11.18863850451790   -1.36822315172333    3.21895898840897
C        10.88185993860965   -0.13736812979770    3.76383792210033
C         5.98897303445204    1.01346355773220    4.20399568741082
C         4.70236002608922    1.47743288483617    3.97217569587551
C         3.61714456508787    0.73827680012578    4.41329239430062
C         3.81137164483469   -0.45547133459494    5.08793681132899
C         5.09656698036264   -0.91745845388172    5.32811778501693
C         6.18109660743387   -0.18265565893925    4.88928266399397
C         6.96597756132083    3.58114971275437    3.19188175859050
C         6.23761303657636    3.71540543329100    2.01407494112049
C         5.80860446655604    4.96771888060688    1.61976594892914
C         6.10833780605428    6.07871232726787    2.39457842238524
C         6.83419857885764    5.94101961653743    3.56598650214921
C         7.26306317518871    4.68939207041433    3.97158272759339
H        11.93894072022420    2.49830864649217    8.77783166829948
H         9.54431283412420    2.70603919538974    9.32456469286031
H         8.69131979569056   -0.73715123737357    6.89071942058783
H        11.10832111979246   -1.01405772053175    6.41704501015383
H        13.47033439443414   -0.35581198076576    7.76623139115830
H        13.37669549607806    0.40825653767597    6.18098217733642
H        13.76598783264748    1.37845515654729    7.60919177721505
H         6.91233773302996    0.38479038644071    7.85579503560703
H         7.31421179026447    3.29246454739168    8.70846812888502
H         7.12774341034384    2.75028950407665    7.03660457265974
H         5.81423176628053    2.52221762654741    8.19376845972787
H         6.17817437692314    0.84827616495501   10.15936679692687
H         7.63284864222477   -0.15080521147538   10.18361497205542
H         7.73489173060183    1.57293971267263   10.55387183199604
H        11.05829891016360    5.28205073539848    4.23935396251314
H        10.11333754334255    6.89388381124887    2.65868297450599
H         8.95807338011620    7.36732231949142    0.55869865366425
H         7.81352393051960    6.57279094062027   -1.47696558832800
H         7.55489565439570    4.15410677527833   -1.87755657470584
H         8.40501971473129    2.52866717033461   -0.26772344399393
H         7.08340146503995   -0.69272758644414    2.52643945875093
H         8.37354004921495   -1.96075242862573    0.86213726399913
H        10.28002451205697   -2.12002325586422   -0.67220796204814
H        12.23503827393722   -1.08338166261699   -1.75256135403971
H        12.87697084967523    1.22849475168339   -1.19845966642291
H        11.57681160951393    2.52057613379633    0.44009192633372
H        13.06419460129409    3.73890112851602    2.45441744879183
H        15.18621167656137    4.95806722064309    2.70937386034264
H        16.08942633120869    5.41787823025091    4.95576857185805
H        14.85536911575389    4.67610583876802    6.95681920566836
H        12.72138202261235    3.44196305967727    6.69936323283426
H        13.64556510281778    1.57528634776131    2.82952422648744
H        14.17569483298493   -0.60302739749437    1.84681178164182
H        12.61558083132684   -2.49553253264611    2.08791714384763
H        10.50852139194441   -2.19834437018776    3.34000635579177
H         9.95343190524911    0.00466097274104    4.30412283482172
H         4.54873142321745    2.41313401244031    3.45550667764048
H         2.61620277371973    1.09947856014526    4.23308765668353
H         2.96203172451689   -1.02581189278488    5.43132271666790
H         5.24733553273442   -1.84793642358629    5.85564310489802
H         7.19156279396823   -0.52577496202481    5.06891827503694
H         6.02055363684806    2.84159392423239    1.41452864126891
H         5.24226494112198    5.08049742186040    0.70784944560845
H         5.77112010043684    7.05483527545664    2.08089540061258
H         7.06683526290116    6.80603598967523    4.16753772550625
H         7.83807066583601    4.56523297069502    4.87903122545415

