58
CSD_code = QINZOE | q = 0 | S = 0 | Stoichiometry = C25H26FeN2O4 | MND = 5
C         9.78667287544520   -0.24488468715917    4.91944710033795
O        10.72237026328651   -0.91552303171065    4.91867911344740
C         8.97205190661691    1.39290028816908    6.49790213617802
O         9.50814678848665    1.64930101624764    7.48659999520658
C         7.33265626620396   -0.67241889922848    4.91798228203479
O         6.71274979937920   -1.64720070453861    4.91686623913215
C         6.64194075413845    1.90558226807165    4.92067217179353
N         5.92656400103518    2.25312340699733    5.99869601323599
C         4.62893180642146    2.84495963856454    5.68387365485711
H         4.55287338966157    3.84836553706620    6.11406156000166
H         3.82685135797265    2.23309206278033    6.10808781840125
C         6.32158736951314    2.21328861282346    7.36405035685896
C         5.93972990880088    1.14662214145118    8.17418713529155
C         6.30490793878946    1.16592253300785    9.51410793516045
H         6.02314377970299    0.33294618068919   10.14240805231751
C         7.02144863882690    2.21959845686697   10.05609117805427
C         7.37209006044790    3.28119826768979    9.23093068983013
H         7.93255313301565    4.10773991733172    9.64364895839297
C         7.03312706125816    3.29708633699086    7.88968872785252
C         5.13582631735008    0.00045760405222    7.63997091599891
H         4.08565753398787    0.11998455671822    7.91161669797237
H         5.48521619566436   -0.93638675805003    8.06723444994872
H         5.21008607976955   -0.06580138635568    6.55828365270427
C         7.43565739126587    2.21682352770026   11.49499036915936
H         7.25157517638058    3.18774057361334   11.95128264920641
H         8.50322106430434    2.01022909736495   11.56964591178879
H         6.89972708711670    1.45493315954293   12.05516026670557
C         7.44603292309440    4.43791984166524    7.00906964776745
H         8.08648754686196    5.12573660335598    7.55428074828761
H         6.57903185918257    4.99104144184676    6.64730346811611
H         7.99410440656103    4.06359308579736    6.14444225214356
Fe        8.37079192493373    0.77510345145371    4.92047425851817
N         5.92617063145689    2.25325663462819    3.84292591003619
C         4.62861812223899    2.84497518396332    4.15826892912642
H         4.55225717898407    3.84836626267674    3.72811118739027
H         3.82641643355465    2.23301717116109    3.73440452656466
C         6.32086179639060    2.21329556657628    2.47746355757793
C         5.93872862857891    1.14663145313514    1.66744960433113
C         6.30434546657004    1.16544047380724    0.32764175832662
H         6.02253668371591    0.33236332718375   -0.30050557801954
C         7.02145273711056    2.21869836729355   -0.21440487340964
C         7.37186267623608    3.28057601825683    0.61048619555506
H         7.93254123401603    4.10692352583990    0.19767848331381
C         7.03248407825400    3.29693800582833    1.95162428025164
C         5.13381859134124    0.00109785406849    2.20150696723636
H         4.08389383821790    0.12125206034152    1.92917942649130
H         5.48283723239627   -0.93608713891002    1.77469213958438
H         5.20731025516687   -0.06493928521942    3.28324805631893
C         7.43649158826905    2.21515851506343   -1.65306252763764
H         7.25292504203733    3.18590493327446   -2.10993099024128
H         8.50406130704294    2.00825264845970   -1.72696629631863
H         6.90070222824755    1.45311427400077   -2.21317944951510
C         7.44479196022582    4.43832964221501    2.83182126497844
H         8.08589400721988    5.12561541133822    2.28670594548680
H         6.57750576618866    4.99188276259449    3.19225981934611
H         7.99192911798627    4.06465809062295    3.69730616171565
C         8.97500600683209    1.39903166930500    3.34665910165944
O         9.51284478624458    1.65997243167800    2.36007999314626

