62
CSD_code = QINZIY | q = 0 | S = 0 | Stoichiometry = C29H27FeO3PSi | MND = 6
Fe        4.19414007838023    3.55000954344429    0.52424082181613
H         5.27276281789135    2.66863173714309    0.95651959435071
P         5.28622950621271    3.98112013414292   -1.33078874568540
Si        3.04207301600663    3.04787109981631    2.48061509078461
C         2.81871716197513    4.55930292743435    0.11336992344935
O         1.91709032940968    5.19900628863279   -0.19248003284279
C         3.52062267566137    2.05202526379420   -0.10679422723711
O         3.16568371840269    1.03800177067288   -0.50636037121853
C         5.10273976962004    4.71266184859597    1.49243374961042
O         5.77489995011505    5.39493076515882    2.11865689724010
C         1.17278803672061    2.78943320750793    2.13930540472282
C         0.24472046117650    3.79982594808138    2.36655574814895
H         0.57679662819489    4.73676456359701    2.78981244730762
C        -1.09531121178209    3.62450465846276    2.07002284090357
H        -1.79743974783285    4.42540613137225    2.25477995247597
C        -1.53688856102034    2.42535278411707    1.53825671164936
H        -2.58269057332946    2.28546179403617    1.30447584900591
C        -0.62942106886517    1.40393993588093    1.31214180303531
H        -0.96607435232968    0.46170116815380    0.90285624402345
C         0.70842790827981    1.58866732719860    1.60877959473979
H         1.40612156726891    0.78171921417711    1.43612554212803
C         3.60279406843454    1.49694881848121    3.44820862190188
C         2.67851742681325    0.71799597342150    4.13724501112318
H         1.63140151712678    0.97997724962929    4.09482845963344
C         3.07782327956303   -0.38071438965291    4.87718548486321
H         2.34165150128543   -0.97323897436099    5.40205645759512
C         4.41837020746718   -0.71923667000305    4.94864186029223
H         4.73315734013332   -1.57706317805923    5.52568506625063
C         5.35318400237725    0.05156945163288    4.27849871005515
H         6.40268888646831   -0.20186959135985    4.33452486447149
C         4.94467085533917    1.14624416121652    3.53835720440552
H         5.67978327256209    1.74371750942947    3.01867744252284
C         3.09624356561885    4.45512307446975    3.78029678598510
C         3.29961644032335    4.18853756114636    5.12957004535143
H         3.44488048840822    3.16647585215427    5.44748266545458
C         3.32200677564337    5.20683921285199    6.06628315529022
H         3.48471122358753    4.97555356364010    7.10948753109544
C         3.13650564842864    6.51972633252869    5.66943236953461
H         3.15300948239480    7.31727472805634    6.39835485324323
C         2.93273482769048    6.80564978779081    4.32991503917871
H         2.78901058754470    7.82847219472974    4.01024265634693
C         2.91685153850973    5.78193109696819    3.40085894557549
H         2.76602788378745    6.01883466427665    2.35545146689347
C         6.43473793234409    2.69819606490878   -1.94362482628301
H         6.90851962165913    3.00982729926081   -2.87606368952000
H         5.85242939342119    1.79035810418147   -2.11046690975677
H         7.18425731542111    2.48846278722165   -1.18102980701472
C         4.28378749229984    4.25104184485783   -2.84528910075456
H         3.59035819438600    5.07661272536812   -2.68928950305652
H         3.71054500448403    3.34532783233074   -3.04937998997299
H         4.93642184520947    4.47711961610320   -3.69010337054629
C         6.28629854820348    5.50384301953579   -1.32042654628646
C         7.66519772122613    5.53479071386092   -1.48427595802134
H         8.21836649478865    4.62349430334984   -1.65531283230382
C         8.34162554453083    6.74179896538648   -1.41826771793527
H         9.41432175114928    6.76022446381463   -1.54458957528668
C         7.65227795530941    7.91887707275601   -1.18559357998872
H         8.18556200784390    8.85619449461914   -1.13224195506926
C         6.27718079510017    7.89243492268851   -1.00916433108643
H         5.73782393334440    8.80802509477959   -0.81647825240440
C         5.60042327627787    6.69075949740761   -1.06867782290693
H         4.52953624334253    6.65762463717054   -0.90873376728078

