74
CSD_code = QINZUK | q = 0 | S = 0 | Stoichiometry = C31H36FeN2O4 | MND = 5
Fe       11.05458430207747   -1.76046312075107   14.06448813897099
C        10.21114246248851   -0.73941785900083   12.84982498611195
O         9.74544973439337   -0.21264486311439   11.93471986877580
C        12.80339062021105   -1.48614116527433   14.29455052484325
O        13.94594124304145   -1.34922919572749   14.37732514737928
C        11.38377418259431   -2.84724545987743   12.73953147947811
O        11.59733735829331   -3.56276090631762   11.86329603866888
C        10.31084341283533   -3.17119226699765   14.88565029400161
O         9.89749535632726   -4.17781087689914   15.27053204329038
C        10.61716568827289    1.43214197598522   16.82458133412409
H        10.53891251784793    2.48823428229481   16.98159753802634
N        10.59313419558237    0.88197448434222   15.56842899058809
C        10.28674772239521    1.66562415618773   14.41792933732541
C        11.31517297334511    2.20725607601376   13.64538411834807
C        10.96878348052629    2.97862435635702   12.54411122142098
H        11.74345599632228    3.40859334388639   11.92917630043202
C         9.64418499573349    3.19466668372190   12.21906531376678
H         9.39220699528980    3.78031663036022   11.34762883268727
C         8.63998934272834    2.67005886052383   13.00905075908905
H         7.60952125183283    2.85200922363299   12.74716864472281
C         8.93935008480706    1.91038513662923   14.13132107355550
C        12.76580411571538    1.99890264728247   14.00610871590030
H        12.82959625413709    1.22350703944097   14.77610746289796
C        13.34640531592137    3.29443479490599   14.58104689447810
H        13.29094771816165    4.09637467926203   13.84852067083854
H        14.38865452018916    3.14767178440615   14.85457337992229
H        12.79686185852519    3.60313450791903   15.46848481574114
C        13.58063566283299    1.52663479321792   12.80181670018685
H        13.09178569240830    0.67668805932628   12.32940108767184
H        14.57190517962626    1.21708353088158   13.12421374884931
H        13.69427979530730    2.31743155790120   12.06498936087097
C         7.82425440110701    1.36691823782966   14.99526129735944
H         8.24848031230078    0.93024298547865   15.90411897778015
C         7.06722926713161    0.26253647951398   14.25472902910094
H         6.64934615465923    0.63837151075025   13.32446237016094
H         6.25450539227286   -0.11324904082529   14.87282424998136
H         7.73732608713540   -0.56360538048989   14.02096313071328
C         6.87191248923229    2.48286520109577   15.43295597115486
H         7.42435299183815    3.29629495183090   15.89936170750599
H         6.15554565376046    2.09544693843227   16.15420439999952
H         6.31792286561257    2.88372461425049   14.58884696189011
C        10.73907247715415    0.40862374960906   17.69586154257175
H        10.80182964346151    0.39602359202004   18.76470714058495
N        10.78213155565799   -0.74398146156897   16.95320866189410
C        10.74881886036177   -2.01897294755749   17.59280539142650
C         9.50142916222917   -2.60629756877437   17.83859402655302
C         9.47100232862643   -3.78719350130276   18.56554444072622
H         8.52641635172435   -4.26122699542786   18.77673061917892
C        10.63794277504478   -4.36944768682591   19.02376758924092
H        10.59322481980042   -5.28924879749091   19.58773267356993
C        11.85863447327323   -3.78191559680957   18.76039787029898
H        12.76224385066650   -4.24780887693123   19.12060622438725
C        11.93658808986730   -2.59529032317726   18.04216492285581
C         8.22474261328822   -1.96351217029293   17.34465420438566
H         8.46434184360306   -1.36416265617600   16.45977161305344
C         7.17285906861674   -2.98881135455143   16.92098878939962
H         7.61308697727622   -3.74061556663549   16.27197491572543
H         6.37584134655154   -2.48889933290711   16.37493104518269
H         6.72910189154732   -3.48339658243130   17.78150775650697
C         7.65054960429769   -1.04169383265425   18.42620768282023
H         7.43613433458148   -1.60973170536577   19.32915525596426
H         6.72602522727308   -0.58738970987981   18.07650980405778
H         8.34883633476450   -0.24657801902900   18.67909777239420
C        13.27638812314134   -1.95029706449824   17.78166296836660
H        13.14174851005926   -1.13365435742752   17.06522194846873
C        13.84149906720200   -1.36347338970403   19.07829715523132
H        13.16997234720831   -0.61154021571471   19.48832658394308
H        14.80509030949917   -0.89658323944821   18.88797375747757
H        13.97692715578200   -2.14335828013664   19.82400915960664
C        14.25782394221461   -2.94976815589158   17.16786286517881
H        14.56553820634254   -3.69852213551842   17.89311802159779
H        15.14606296530916   -2.42934569609873   16.81792100115384
H        13.79872541683129   -3.45438530549278   16.32052731402238
C        10.70883468191572   -0.47083420429358   15.62490636356195

