99
CSD_code = QIPGOL | q = 0 | S = 0 | Stoichiometry = C35H58O3OsP2 | MND = 7
Os        1.43400062701640    2.64261968865695    3.65408714556086
P         0.57694593066462    0.57996783745939    4.62205347061133
P         3.81575674957488    2.58974783455172    3.22163090534447
O         0.86231896473057    1.91950032924532    1.71726927599014
O        -0.64718060577497    2.79867068935583    3.00774857253768
O         1.67204076392360    4.54751566629115    2.82689849356757
C        -0.26732686477658    2.45223966915263    1.86793581395371
C        -1.17506310152833    2.64446676892978    0.67431861340304
C         0.98722736519326    5.28140504242509    3.77615172997565
C         0.77915065638364    4.27568613845120    4.90360912629762
C         1.89974667956830    3.78488129308454    5.55855344584112
C        -0.33031488513938    5.83392949642092    3.23550985599893
C        -0.49027003895025    5.96198770440884    1.86354240330381
C        -1.66077838498183    6.47389242496578    1.33487014619944
C        -2.68407903380628    6.87243622532323    2.17719195957532
C        -2.52342596776743    6.76440460192923    3.54819636143180
C        -1.35169355588838    6.25333188348791    4.07632079885994
C         1.77292104955647    6.51700717690324    4.21199467093629
C         2.56889988009102    7.16009659516804    3.27371014122643
C         3.28181927192686    8.29425066686863    3.61457358642780
C         3.20045528702556    8.80222014427283    4.89995384172986
C         2.40436272641088    8.16846489777155    5.83887435037490
C         1.69323082718130    7.03130683401966    5.49872682468728
C         1.71984903324865   -0.49406467836806    5.67382406863231
C         1.12950278939289   -1.65635606614210    6.46482818486315
C         2.57077100714899    0.38253582078480    6.58508294099149
C        -0.97537641322790    0.91942243876190    5.65318929607128
C        -1.96737811806241   -0.22215772581349    5.88639431828198
C        -0.63731710438046    1.54556783787798    7.00492645646455
C        -0.11125652871172   -0.78391955509892    3.51185982478008
C         0.95463904984750   -1.40460793586681    2.61553183806230
C        -1.27825808312585   -0.33351566994825    2.62900164630472
C         4.24995993096481    3.57948547716043    1.67724372683810
C         3.28033418171179    3.40045342109582    0.51322761432779
C         5.68183527110242    3.45320805864763    1.15689665868806
C         4.44469603908364    0.82676074648610    2.95686486993609
C         3.91108095639387    0.31076141263229    1.62276104150498
C         5.93960101567046    0.53494758107699    3.06738804746530
C         5.17810737311388    3.29189681357680    4.32531901748654
C         5.18105374837907    2.69951548240262    5.73240536217612
C         5.16545332574570    4.82449716024076    4.37238024367807
H        -1.22427610139274    3.70858369424576    0.45152676194222
H        -2.17925709828532    2.30336767785822    0.91460229699337
H        -0.78259454144472    2.10858291733724   -0.18588525813464
H        -0.22727979073296    4.09752066821753    5.27457807055611
H         1.79224506492852    3.29252137788473    6.51816702104337
H         2.81829004155393    4.34795456026492    5.45907287691546
H         0.31893193521741    5.64228434183211    1.22216181722984
H        -1.77563109629993    6.56514767390057    0.26298602180395
H        -3.60205736975910    7.26983654299038    1.76779066124840
H        -3.31700655863645    7.08173309254112    4.21053246197576
H        -1.23477261979925    6.18673188658936    5.14880691571332
H         2.62460096839731    6.74609860342413    2.27797817422026
H         3.90014948576676    8.78508961589440    2.87637924236651
H         3.75496654817916    9.68956658419360    5.16971366519592
H         2.33816749799025    8.56180044156659    6.84359811198499
H         1.08051706347785    6.53809548754541    6.23957282619533
H         2.39691609054947   -0.91299086501556    4.91888108472114
H         0.51392299676750   -1.30137642024479    7.28642520818774
H         1.94416984523571   -2.23990248860129    6.89427783936556
H         0.54029482743401   -2.32465266214318    5.84299157186462
H         2.90000536850653    1.25764795451239    6.02840685211125
H         3.44323449860945   -0.16778122936684    6.93528914392858
H         2.01135558797005    0.70887074234511    7.45655990595669
H        -1.47855459582886    1.68817514638038    5.05179346092971
H        -2.38465348633773   -0.61453942010541    4.96557608920992
H        -2.79628450993202    0.16493154855190    6.47968248413166
H        -1.51960140759946   -1.03974693131204    6.44299870930662
H        -0.27099428257895    0.79496774481990    7.70134880293084
H        -1.53296139083746    1.99004230197218    7.43851315319769
H         0.11011601098535    2.32325682269234    6.90127486708708
H        -0.47543028027141   -1.55080420739445    4.20387638108047
H         1.36239244557226   -0.64350011405880    1.95741271738770
H         0.50376990675940   -2.18443300804516    2.00204390314318
H         1.76510082862136   -1.85366418666537    3.18368577989172
H        -0.90115291006542    0.05753796444437    1.68833625161511
H        -1.88118594563026    0.44152921276790    3.09474868187477
H        -1.92231028486039   -1.18321005768007    2.39985823791253
H         4.09419952839372    4.59931436070920    2.04353768338050
H         3.42873622294132    4.20845626960291   -0.20327939553137
H         2.26062444272593    3.45167735700154    0.87477480234949
H         3.42620704416788    2.45873730040237   -0.00692676738241
H         5.83424902895780    4.20313602517183    0.38073345622772
H         5.85162951070216    2.47969255138508    0.70421400051676
H         6.43238125837832    3.62051379395467    1.92370808536820
H         3.93566176710716    0.27394111220299    3.75639474938138
H         2.90620182754972    0.69178837564257    1.45479696263940
H         3.88638194373139   -0.77822867980697    1.61383383009552
H         4.54819485836913    0.63402358270285    0.80367667141712
H         6.32500213846048    0.72960604751294    4.06357749550518
H         6.10067374681351   -0.52171382741624    2.85278772122570
H         6.51913099789266    1.10828561243201    2.35093460191262
H         6.10938870809417    2.97129880217319    3.85050781750526
H         4.34563283304776    3.06196630588631    6.32083119991893
H         6.10132183803418    2.98410619906383    6.24278926045683
H         5.13464821181664    1.61468255205375    5.70064894362747
H         5.55238956268194    5.17475027493841    5.32794150462844
H         4.16373896525326    5.22772338432932    4.24667169279517
H         5.78872100782325    5.24950935723835    3.58933620055166

