95
CSD_code = QIPKIM | q = 0 | S = 0 | Stoichiometry = C48H30F10N4OPV | MND = 4
V        16.27491881993084   18.51494864417731    1.96459389671893
P        19.08771774427460   19.76404615330153    0.98443754800867
F        22.03375730929540   18.56656361268817    1.66655424782873
F        18.08906078035210   17.88887019403459   -0.78554292882430
F        23.11880740217136   16.34254411090648    0.55552413206559
F        20.80805911564118   22.28917270736688    1.30861189501149
F        19.33893423785472   18.50881779661176    3.68631044631496
F        19.20411789233463   15.69530616148900   -2.00281301044382
F        22.04409860099618   23.21305632270661    3.51919032696351
N        14.86403026184165   19.44577659896731    1.37231212186928
F        21.71707110370779   14.91058929664855   -1.28448880783341
F        21.96820679535504   21.77252899011833    5.82899186735311
N        16.23683464686760   18.71392545055501    3.75460167182153
O        19.03773340774566   20.73115563221344   -0.11250802035113
C        13.09121140387390   18.51726482648788    2.77229766610232
H        13.25060682817170   17.53894048324455    2.33824323600914
N        17.71507118324321   19.18411620040214    1.57057903719937
F        20.63056282434691   19.39435343121501    5.90512507511083
C        20.01455834593625   19.66369502825203    3.63652783609704
C        17.61271649308101   22.09570759473803    4.28909701799302
H        17.72130678642998   23.02193356723540    3.74385413637315
C        16.98271452067886   21.02411763157944    3.68170319765727
H        16.60041853616235   21.13217693199763    2.67264450240429
C        14.63086646376556   18.38752631058082    5.53593266251298
H        14.59324587644633   19.45842893543220    5.68397213859306
C        21.17337468697675   15.99344317618002   -0.73166458093107
C        14.65300218170998   20.10118503205637    0.17511246371598
C        19.33780070315767   17.50815937879230   -0.48120309339465
C        13.14442931674576   20.98560329357416   -1.49465860162860
H        12.13366396840617   21.18550611552124   -1.81945496329483
C        20.03846549616686   18.26245262531540    0.44684712435162
C        13.56372435385231   16.92947236066837   -1.36943787292421
H        13.38005118701454   17.40927348404237   -2.31919078909364
C        21.38949553025349   22.05072070503244    3.55720825933645
C        16.82604206295108   19.80911061498618    4.36521475093753
C        21.31913403606375   17.86407129918310    0.77898661008554
C        14.05475557750645   15.67958718464511    1.05559789602405
H        14.26151742058291   15.18018626418469    1.99450439622735
C        20.73988141160756   21.57050554174646    2.42016746200024
C        14.99086044556734   16.57828645440258    0.53712275170320
C        20.04730354587469   20.36911285449210    2.44441208731171
C        19.88585272918817   16.38820861040088   -1.08981889842176
C        21.88926448849988   16.72805130824787    0.20812379869348
C        13.85989953655607   19.59756783162289    2.33891625817348
C        20.66407656490616   20.10948026636261    4.77811577636747
C        12.87707738273576   15.43165578345787    0.37300766038170
H        12.15636860565882   14.74112367685087    0.78616369172361
C        14.21608322658109   21.33255032004913   -2.30054296074779
H        14.04738354920303   21.80587312851226   -3.25573730848474
C        13.60287908440377   20.86616375263599    2.87206353603313
H        14.17660692015326   21.71316905313144    2.51784935832651
N        16.16940506475391   16.86216842274419    1.24462755351099
C        17.16195159109849   15.91382156265966    1.19992803124435
C        19.26745436640844   15.07120259246186    2.05021272749053
H        20.08652055541251   15.15684217147837    2.74958252775342
C        11.85877314272000   19.95757655825289    4.24894977363775
H        11.08187679206325   20.09695552338468    4.98506097022944
C        17.93744644784977   20.80169834351477    6.27481805535582
H        18.31225353921227   20.70617378998492    7.28286039537530
C        12.61773901088203   21.03760875077256    3.82472512249463
H        12.43447381780053   22.02152126595225    4.23070352036364
C        15.50594647111168   21.06576407022262   -1.86688430899733
H        16.35295614092730   21.33628381045192   -2.47866692246726
C        15.48485705819540   17.86557741927196    4.55304874615783
C        13.35278226687927   20.38238520490910   -0.27035626291428
H        12.50724875028645   20.10602252658780    0.34541923607399
C        15.72809299649361   20.45340964612428   -0.64991331434522
H        16.73828297173357   20.25349038475915   -0.31947844851008
C        18.16933282851183   13.92338981735450    0.26215673642330
H        18.13589234967834   13.11697077519295   -0.45490836923049
C        13.83310760239077   17.55490920208630    6.29302849515950
H        13.18037200877944   17.98196523780677    7.03972022621854
C        19.23976361695970   14.02808240115372    1.13685322081875
H        20.03708167558813   13.30150555104313    1.11158094132029
C        14.74845597633787   17.17782332558208   -0.70068543356263
H        15.50358148610767   17.82508574287446   -1.12838228188617
C        21.35424023775150   21.31795017802813    4.73786188803079
C        17.14460744060838   14.84770176426382    0.28508988778113
H        16.32632505247092   14.75955214548155   -0.41529457252512
C        13.86255234866591   16.18331313676010    6.09729634173600
H        13.23669470192883   15.53422547882132    6.69018844414082
C        18.09115929522553   21.99509671826283    5.58526781948622
H        18.57351421123807   22.83775040863461    6.05653666106136
C        18.24388302808319   15.99669075303385    2.09106730348665
H        18.25294170042256   16.79211764446606    2.82305772483968
C        12.09602141444713   18.70239203395092    3.71646245477478
H        11.50196767434943   17.85763435599744    4.03239998340476
C        17.31973853232772   19.72275461503160    5.67621363449335
H        17.22861509898046   18.78830476753490    6.21275038646994
C        14.71252575758106   15.65320943238033    5.14119664330838
H        14.75960129703906   14.58341187011394    4.99469242612641
C        12.62266982904147   16.06497097480559   -0.83257717155874
H        11.69907433919390   15.87469320250327   -1.35769956988892
C        15.51945918482500   16.47770840265759    4.37881885636879
H        16.21113893498289   16.04040529151031    3.66941321568524

