88
CSD_code = QIPPAG | q = 1 | S = 0 | Stoichiometry = C49H29Cl4MnN5(1+) | MND = 5
Mn       14.03003128737829    2.15639088615077   20.15272747957063
Cl        6.92475006310241    2.56536298625979   26.29784661408048
Cl        7.78094369931762    0.96354977943542   13.21806613759332
Cl       21.13464480025928    1.50816823685926   14.02677069432349
Cl       20.27604116121439    2.49288893408255   27.18453124335212
N        13.90678949262085    2.20967490677643   22.15180299464059
N        12.05478163201211    1.88497827684078   20.05232497141846
N        14.15662388504295    1.81839506492578   18.18171885787744
N        16.01210454768570    1.96758566519748   20.29907749002473
N        13.99767224452800    4.14875182970727   19.95107127061843
C        14.94513894358428    2.37983630177687   23.03342598120770
C        14.44539903940387    2.72179464563384   24.33011994953962
C        13.09318758016708    2.71923076106224   24.24434346755607
C        12.76412206468894    2.36886897012895   22.89589184642356
C        11.46388664571831    2.16684088841738   22.43039435816219
C        11.16759345156626    1.86221327756197   21.09993461066886
C         9.86357292497245    1.49201398882997   20.63961345217195
C         9.95067608646338    1.33634517213438   19.29682077786714
C        11.30630687125558    1.61583294111545   18.93271097340506
C        11.76986257521639    1.63473944311968   17.61685547948479
C        13.11644884689226    1.78501899434311   17.28645757929021
C        13.61052794133472    1.87814759694304   15.94655237705442
C        14.96216681710998    1.92660363204970   16.02772790612141
C        15.29657093364589    1.85822611824976   17.41798974679575
C        16.60068587521783    1.78931032801913   17.91046501058846
C        16.90252727869008    1.76493824277043   19.27372143706732
C        18.21576261390620    1.53162146148611   19.79383083937981
C        18.12925772374103    1.63907947239584   21.14132157165087
C        16.76476438313401    1.94396595659101   21.44765406097360
C        16.29638518136684    2.20409467071809   22.73585020576040
C        10.34640363317958    2.26062584625532   23.38732907651134
C         9.30453021962608    3.15982518876816   23.16519590156335
C         8.25672859346631    3.26119307132928   24.05889389577278
C         8.23307109394405    2.44758818663367   25.18397767495690
C         9.25723432515649    1.53861089785679   25.41423218461957
C        10.30855229102563    1.45328495780139   24.52273054783270
C        10.78965978553639    1.47244395570244   16.52814314049400
C        10.91456902798423    0.42965863073585   15.61165450926289
C         9.98979796948625    0.26565736353541   14.59915609839745
C         8.93234206249934    1.15819431922732   14.48402448755013
C         8.79728232792725    2.20664775696841   15.38451517813957
C         9.71789297062083    2.35472320137604   16.40318236831168
C        17.71674401197287    1.71743108893720   16.94967381386184
C        17.78000980386340    0.69338450756215   16.00654633383204
C        18.83051140011297    0.62141944072640   15.11294169095393
C        19.82728496083952    1.58760065847648   15.14520500700984
C        19.77717809067679    2.61682633671698   16.07599079315392
C        18.73107987459923    2.67315452533603   16.97573074802237
C        17.27547590174166    2.27943148123113   23.83503100266453
C        18.32399947668765    3.19652765141659   23.78932833246209
C        19.24201362086257    3.27026907393728   24.81842841447562
C        19.12801446710982    2.41094856734807   25.90328477718606
C        18.09411957186488    1.48581204780586   25.96047974658748
C        17.17154200053068    1.42879440890467   24.93445028950175
C        13.07005329438766    4.90534590678616   20.56621242179691
C        13.01095265552648    6.28121776596904   20.44526843889910
C        13.94121659947891    6.93673612183113   19.65359417867972
C        14.90143548908597    6.16695355243662   19.01545723544272
C        14.89820638919786    4.79531269951812   19.18799255183390
H        15.05321275754173    2.94636721370356   25.18325569519111
H        12.38144197910847    2.94153102796023   25.01364340873832
H         9.00883964933287    1.34626433181117   21.26896198696422
H         9.18046598854447    1.03917224449183   18.61403882486467
H        12.99932704735583    1.91483220416521   15.06746423902250
H        15.67027011721562    2.01042130332642   15.22807871821882
H        19.07639087108653    1.29172030481709   19.20250342490319
H        18.90594201698325    1.50438214662391   21.86681583420278
H         9.32600090558162    3.79605370413360   22.29242779362670
H         7.45863445281519    3.96574145716541   23.88791601213610
H         9.22690210543016    0.90339487600085   26.28495527505974
H        11.09759692182031    0.73624926007812   24.69274495488572
H        11.72955410624096   -0.27160138550457   15.71075466984375
H        10.08346591067811   -0.55053027482146   13.90081547625171
H         7.97589601422969    2.89808806339536   15.28522943989867
H         9.62018852259779    3.17446978391918   17.09941596430920
H        17.01192747390158   -0.06521587043230   15.99217112365030
H        18.88136653697601   -0.18010759982336   14.39356963739301
H        20.55371712191473    3.36466073583237   16.09297614280376
H        18.68919273256039    3.47607603114982   17.69717663600503
H        18.40506874497721    3.87001313861267   22.94904176764914
H        20.04504733480219    3.98899580131419   24.78411559361966
H        18.01683008617785    0.81657742138834   26.80236216594757
H        16.37491251183071    0.70089546831321   24.97100846863333
H        12.34466610019540    4.38853592740850   21.18399248753328
H        12.24203896378521    6.82788008600183   20.96726146458298
H        13.91882522384554    8.00857294720070   19.53836938816053
H        15.65046896280950    6.62158168576882   18.38713853685843
H        15.64758033942734    4.18948932529333   18.69162464459658

