34
CSD_code = QIPQUB | q = 1 | S = 0 | Stoichiometry = C16H14N3Pt(1+) | MND = 4
Pt       12.95175984045169   12.16685103169098    2.07970185379364
N        13.22859805245541   10.17507538047416    1.98061459112225
N        14.15363229411686   12.10068528436140    0.51800188214974
N        13.05736593707542   14.13878786022111    1.67512847314690
C        12.72536349695076    9.22188096473472    2.76021190847445
C        12.99731291043822    7.87490596182808    2.57872593042005
C        13.83004785475521    7.49360132282458    1.53952965524980
C        14.35928728061513    8.47866234436672    0.72143990529437
C        14.04973725415826    9.81345370144060    0.95495021171148
C        14.58278639506911   10.90658733091563    0.12198576938591
C        15.44167954799860   10.82481892369086   -0.97221964483674
C        15.81321110328156   12.00754968408824   -1.60063782623250
C        15.34575677656271   13.23746186151301   -1.15356285219126
C        14.48838121987210   13.25171408845919   -0.05488113498501
C        13.85987330887625   14.40893041401446    0.60640504263162
C        14.06424864368722   15.71353832935661    0.17308668314135
C        13.44507379172544   16.76519553513518    0.82896218382406
C        12.62877939512494   16.47804434318693    1.91024387017884
C        12.46602448461686   15.15650561991355    2.29537890982362
C        11.72200201814405   12.15895742448157    3.70139759428752
H        12.07883494396066    9.54654710197883    3.56299707372008
H        12.56185185622316    7.14592102291545    3.24202991713689
H        14.06431192051688    6.45523000993035    1.36671111770687
H        15.00995512531939    8.21345689780879   -0.09557375870880
H        15.81502763548346    9.88072680766231   -1.33154347439475
H        16.47717893557266   11.97002358586289   -2.45003121303881
H        15.64607606410531   14.14396973906694   -1.65139327108435
H        14.70421046236550   15.90366922557582   -0.67280469690368
H        13.59784680450623   17.78098418560092    0.50070309352135
H        12.12314482390752   17.26012280819219    2.45219495759041
H        11.83484514196443   14.90846257387849    3.13640359076213
H        11.36828674059917   13.12802699996089    4.05772666802214
H        12.22481289705628   11.68483096284465    4.55511451753331
H        10.82339504244234   11.56322067202311    3.49090247174803

