91
CSD_code = QIPXOE | q = 1 | S = 0 | Stoichiometry = C42H38AgN10(1+) | MND = 2
Ag       12.23914006206390    6.34823069237625   23.41946203190898
N        10.98253351656241    5.39131438158770   19.44838292977998
C        10.62026468470278    4.54265442064421   18.39095132765690
N        11.59919229551631    6.20536419992340   21.37232743346755
N        11.01379422893855    6.71704795407038   19.29873836450520
C        10.67930915770243    3.15751447138604   18.52327738297018
H        11.01338219523832    2.69796243624694   19.43994100186933
C         8.15182397606385    1.12605794491302   10.53847648266534
C        10.19649318783432    5.11055750480490   17.19120403502431
H        10.15983761352122    6.18472777421937   17.10655578212728
C         7.82728175345467    1.68196231888178    9.32970573844665
C         9.09805954619012    2.35795880367823   13.94499551412115
H         9.05941827707115    3.40417666183900   13.67343296284384
C         8.47530370167112    1.94988235110406   11.65647309120746
H         8.51373130646691    3.01858907886925   11.48951361496502
C         8.73098978007270    1.45052046200049   12.89511361781159
C         8.64222928973525   -0.02363946057318   13.15468568525960
H         8.24437044432488   -0.19890909007400   14.15586446054096
H         9.65476752999333   -0.44107372272735   13.12459493922438
C        10.31011599298242    2.36048444865313   17.46319334385864
H        10.35824685803523    1.28730751019740   17.57160632042326
C         9.49722218915135    2.00592634975870   15.18432827758353
H         9.56259993971258    0.95737334551443   15.44069532464751
C         9.87602054519659    2.90656931225852   16.24661501274930
C         8.20325965583529   -0.35560829253888   10.72178239595903
H         9.23855415261606   -0.68092804913816   10.56683225929484
H         7.58974184967865   -0.85791895620438    9.97107694893352
C         7.76104962910493   -0.76108504072212   12.13432282503412
C         9.83096244656840    4.30319780774454   16.13807817016593
H         9.50286263568817    4.76430719512390   15.22119247331964
N         7.78220062011090    4.21422672887200    8.96896447732905
C        11.33508858227239    5.08609327001010   20.70097326022874
H        11.39153830269352    4.09796055649322   21.11039909185494
C         7.48980425768894    0.89884244930317    8.20570148537048
C        11.38380428887567    7.18398785959008   20.45524335145319
H        11.50286647907906    8.23025842469611   20.65387807091217
C         7.80065179527263    3.07799595377505    9.12438565920085
C         7.93421334036954   -2.27027280693607   12.30727016003482
H         7.64634037625595   -2.57408107134240   13.31121107966410
H         8.96805438331830   -2.56645381560078   12.14204372418065
H         7.30912822084495   -2.80666684554832   11.59798500232601
N         7.20863213095354    0.25985765083154    7.29600845925347
C         6.29054806377765   -0.39453142351373   12.34625347927945
H         5.66961346119063   -0.87791894845841   11.59576848130295
H         6.13603763319546    0.68001369124192   12.27631987398154
H         5.95493776195027   -0.72416535556279   13.32704174353375
N        13.49620476143867    5.39138335853155   27.39039581530371
C        13.85859795061259    4.54274291253845   28.44780101257279
N        12.87936568979573    6.20543186198152   25.46650855328285
N        13.46524781079206    6.71713083214357   27.53995930850979
C        13.79912977891204    3.15760277228094   28.31566810635215
H        13.46463849002949    2.69802609530829   27.39917005330523
C        16.32830401237775    1.12619087704721   36.29993356757209
C        14.28296712019908    5.11068387686109   29.64732049299968
H        14.31990932481538    6.18485509470438   29.73182734619018
C        16.65328215731765    1.68205148085897   37.50859807105593
C        15.38160396946090    2.35818985081183   32.89356248011448
H        15.42069899774362    3.40442774301878   33.16498379538284
C        16.00484794604941    1.95006930375775   35.18196420135391
H        15.96671861262672    3.01879219668980   35.34890402681083
C        15.74876871041164    1.45073062201820   33.94339651583466
C        15.83711425068924   -0.02345517266012   33.68382317897860
H        16.23485199096680   -0.19881603592502   32.68260747044188
H        14.82446353906113   -0.44062159306877   33.71398177118869
C        14.16850593656728    2.36060733457839   29.37571569689544
H        14.12000067391839    1.28743093692727   29.26747544115018
C        14.98195843441541    2.00612312462252   31.65439523567363
H        14.91631514681684    0.95755661944851   31.39815086851161
C        14.60315290130555    2.90672902412216   30.59208093787187
C        16.27632180586598   -0.35546722571230   36.11669678941315
H        15.24094550186119   -0.68045096977095   36.27182132441902
H        16.88979775494126   -0.85794546026703   36.86732476671946
C        16.71818750068655   -0.76113803800923   34.70410167353329
C        14.64865063932384    4.30335991940435   30.70042191524809
H        14.97711110583364    4.76449827183116   31.61716305357275
N        16.69939832856889    4.21429998419010   37.86940564895281
C        13.14327241305964    5.08614789142220   26.13791610442120
H        13.08650813383228    4.09798959812931   25.72858504614139
C        16.99055313167174    0.89893067954832   38.63254166443279
C        13.09486964252759    7.18406370631057   26.38356526870335
H        12.97593437301084    8.23032993547339   26.18490006624005
C        16.68051670313137    3.07804588412682   37.71387369056719
C        16.54444935172734   -2.27026986856044   34.53123159492132
H        16.83208340016490   -2.57421875235202   33.52726544049475
H        15.51052701789280   -2.56610540717893   34.69661538180926
H        17.16944988909290   -2.80684372268318   35.24044698313588
N        17.27157278229204    0.25972437344678   39.54231777329198
C        18.18878990941628   -0.39508145584243   34.49194305732836
H        18.80967797120417   -0.87861016585779   35.24237733641649
H        18.34366670124543    0.67942254515427   34.56175672308947
H        18.52414959255927   -0.72491596972472   33.51113759751590

