45
CSD_code = QIPXES | q = 0 | S = 0 | Stoichiometry = C16H20N6S2Zn | MND = 4
Zn        0.79234650959291    0.81049732758715    5.78039641685730
S        -0.17785896075491    4.97624672351018    4.22267219343377
S         2.81282438454456   -3.19710524342084    5.01462073572329
N        -1.10424454569798    0.18967624583217    6.23935819950433
N        -5.05464866620930   -1.08017776009899    6.70706356897469
N         1.62301396481831    1.26919040580408    7.59501210456269
N         3.69746575902287    2.26802149307755   11.07863035304383
N         0.57798905620558    2.42013856701666    4.90728085983774
N         1.68515897871851   -0.69340368711768    5.19748903997023
C        -1.41808398645057   -1.10533760392597    6.31844922868990
H        -0.59063718231674   -1.79606655757121    6.24279471015738
C        -2.69845648918847   -1.57427079701640    6.47658878060113
H        -2.85538111502416   -2.63775973134433    6.52589553169274
C        -3.77648828650162   -0.66928335682515    6.56020705299225
C        -3.42696555157453    0.69458623830371    6.48306541567285
H        -4.17377236141639    1.46766462848008    6.53505247820330
C        -2.11337397432900    1.05932103465185    6.32353699725138
H        -1.84392468060735    2.10298726211410    6.24936870925219
C        -5.37062459752462   -2.48914037273228    6.73405994300276
H        -4.88811509905135   -2.98190652432515    7.58236689739809
H        -6.44493870200075   -2.61906366199262    6.83249899783492
H        -5.04954191202507   -2.98231584771967    5.81257770352939
C        -6.12930828655750   -0.11743220926026    6.76900334046350
H        -6.18514824734058    0.47240763179958    5.84984576540205
H        -7.07520036026846   -0.63623463438004    6.89884363096742
H        -5.99501367149376    0.56220212393046    7.61448734100621
C         2.27212092103909    0.34847100430820    8.31097367170378
H         2.23567546408016   -0.66029428894419    7.92570913782099
C         2.96412635459230    0.62340905412342    9.46408285943001
H         3.46192147358643   -0.18458245218939    9.97145589709528
C         3.02376157901714    1.94439563971590    9.95368549020198
C         2.32854831019415    2.90351107226590    9.18888485663295
H         2.31089491654554    3.94101697237968    9.47408461719681
C         1.66522769625944    2.52383178720725    8.04865413938263
H         1.14094187477670    3.25784343945022    7.45378355345917
C         4.41655898869277    1.25608117947026   11.81653244745201
H         5.19571563635531    0.79770395629586   11.20129427467583
H         4.88958611805774    1.70648890288124   12.68489510797601
H         3.73893900977622    0.47261279168887   12.16576286674623
C         3.76141688790336    3.64076268340055   11.52266873292176
H         4.22787967750760    4.27824116889590   10.76664490692891
H         2.76246194460303    4.02789587419329   11.74028077737972
H         4.35394442710551    3.70177001660152   12.43143659781240
C         0.25881232501948    3.51339638914246    4.60068104352863
C         2.17559441831849   -1.76229688527444    5.10782302563753

