93
CSD_code = QIPYOF | q = 1 | S = 0 | Stoichiometry = C44H40AgN8(1+) | MND = 2
Ag        7.46050039392411    1.92925341877498   10.88468936013154
C        13.81934171310091   -9.70265795632981   19.92661687375426
C        13.30789197958588   -8.68172030113386   19.09843666887912
C        14.27700039530932   -7.87246648800444   18.46851625695567
C        11.96434371034694   -8.48425585022177   18.92095592146686
C        10.95516340018248   -9.37149935393300   19.57282687214546
H        11.38308016826717   -9.86328334272463   20.44881906172352
H        10.68272561979103  -10.15724104802682   18.85865917715642
C         9.69107160509343   -8.59153507512430   19.95975697704548
C        10.03080684270565   -7.54317207113488   21.02150466865971
H        10.47573432784796   -8.01885667647977   21.89233036828195
H         9.13109055221488   -7.02290738320686   21.34245464107623
H        10.73340238412658   -6.80581837707534   20.63910366886239
C         8.65033094636577   -9.56001349841003   20.52219933116032
H         7.73745161901082   -9.02925720633906   20.78274177774201
H         9.02931038203424  -10.04413280888382   21.41864629597325
H         8.40321685327613  -10.33227096205879   19.79668173861880
C         9.12933895833346   -7.90825427913981   18.70288929631596
H         8.70044758423752   -8.66788784712996   18.04003102222088
H         8.32031488610663   -7.23738583455050   18.99753351079553
C        10.16656874972893   -7.14567172877328   17.93516614835150
C        11.48662166000380   -7.43571966169667   18.08142929696518
H        12.22664408218081   -6.85595788133581   17.54486311278365
C         9.78779891545814   -6.10929755502017   17.01601032420310
H        10.61988721082907   -5.59667826123318   16.55213060216497
C         8.52863455759638   -5.75601894498110   16.69068162145065
H         7.69513218059128   -6.26262186244678   17.15726641547435
C         8.15560757320523   -4.72532738232631   15.74786674367691
C         6.80374678907037   -4.37970865030303   15.62362559312968
H         6.07114805597118   -4.88220906667305   16.23705805336954
C         6.38756079877968   -3.40494662748625   14.74268291353821
H         5.34278582047642   -3.14148640787613   14.68150872273946
C         7.32193906724110   -2.74792997308523   13.94883656852844
C         8.66993616235426   -3.07969389548714   14.04988009126917
H         9.39479112330741   -2.59180379088200   13.41597079745326
C         9.07736978023443   -4.05204113710429   14.93681061561871
H        10.12481801147479   -4.30049646021950   14.98650503889285
C         5.74678052059691   -1.75252434708154   12.31622588949946
H         5.03217772990742   -2.54655690445470   12.36936178025079
C         5.75981602401003   -0.61774745764039   11.56417359622476
H         5.02737883864178   -0.26298549710847   10.86536916639353
C         7.57366835024323   -0.63827936717842   12.71194047879030
H         8.51492022269559   -0.35822424196648   13.14424565128755
C         9.16003527598605    4.47344716231966   10.17564609420644
H         9.89567486819602    4.12886097375499   10.87612166689640
C         9.17053550217893    5.59609643931826    9.40548371514437
H         9.88631620521648    6.38775442063559    9.33537053267637
C         7.33952173638772    4.47891570991152    9.03841245369805
H         6.39498517305585    4.19394884582606    8.61657704722925
C         7.58729558061737    6.56644874761855    7.76481238790523
C         8.51755595970775    7.20807943889970    6.95374560782998
H         9.56261668231456    6.94558324862800    7.01428764349255
C         8.09672939776040    8.16558418921588    6.05621218041428
H         8.82623628846529    8.65589943902146    5.42935369697944
C         6.74444901566282    8.51042269978920    5.93343444362340
C         5.82688538836959    7.85222516458675    6.76158188215931
H         4.77872859431208    8.09728801122750    6.71082164154671
C         6.23879325857865    6.89641060157126    7.66417686563309
H         5.51694000732232    6.41998155370899    8.31010753368493
C         6.36751037832662    9.52354730397376    4.97348847245898
H         7.19837451620742    9.99478218171371    4.46681168170864
C         5.10865824765902    9.90628578277946    4.68165233345003
H         4.27820876948165    9.43619247277371    5.19113936445638
C         4.72996771232687   10.92848448097939    3.74681608893505
C         5.76129669187958   11.62545251358634    2.91170271613593
H         6.53080779754012   10.91432651824359    2.60575994051055
H         6.24670343559658   12.38829071786516    3.53043911454997
C         5.17168680182811   12.29053223968403    1.65785698504406
C         4.74501137622017   11.22378495732518    0.64702058013874
H         5.60867207599757   10.65722300445761    0.30603338856636
H         4.28183249682022   11.68946336849046   -0.21969448853330
H         4.03107809751708   10.52828091835921    1.08305700687270
C         6.22333192113121   13.19818702113327    1.01940395454757
H         6.53329145848608   13.98132772134188    1.70820432870695
H         5.82358888049389   13.67001541319343    0.12541766281482
H         7.10181275103902   12.62289518376048    0.73613020610335
C         3.95715326115189   13.13244187697616    2.07261420486656
H         4.29116337899642   13.92867864100508    2.74797107887724
H         3.51032745703513   13.61330066994395    1.20000538434541
C         2.94397049583605   12.30758252459325    2.79630979652031
C         3.41689849100381   11.26619414719856    3.64734152802862
H         2.67921940376839   10.73307250989537    4.23322353527846
C         1.60273399651212   12.55501530124493    2.67154687268344
C         0.63141347859514   11.80529986857639    3.36817758210471
C         1.09627408722050   13.57065142282953    1.83383615484493
N        14.23493492269655  -10.52889781294417   20.60466561799594
N        15.05539026251158   -7.20513696122705   17.95379495238557
N         6.90525846694252   -1.75492999727914   13.03863517102911
N         6.90820203052288    0.07822877829065   11.82155561291768
N         8.00897333397645    3.77557519909067    9.93630619879696
N         8.00784775765745    5.58900388027463    8.68989928855280
N        -0.14784252052642   11.18846992143832    3.94134569681989
N         0.68415280692471   14.39262162792872    1.14848388332664

