100
CSD_code = QIPYAR | q = 0 | S = 0 | Stoichiometry = C46H40AgF3N8O2 | MND = 3
Ag        9.17073296256123    2.50508921855851    9.42386277232986
C         0.80710847402372    8.94523215555269    1.66859067936525
C         1.06387770580508   10.32169303027205    1.82955866379299
C         0.16476555034261   11.17693685448469    1.16332505709236
C         2.11695134435977   10.79668250609743    2.56939545708477
C         2.33657681835977   12.26635773350594    2.73218224865767
H         1.86577547308596   12.57800320856670    3.67181951403920
H         1.85168722765818   12.82021548398729    1.92524665930594
C         3.83210167765144   12.60222156906544    2.79132788290123
C         4.49933830918473   12.24598749407951    1.46091238556693
H         4.01409592877651   12.77232818083177    0.64184463270870
H         4.43916198409424   11.17790975045761    1.26436346170513
H         5.54901810736287   12.53140501705879    1.47459382356948
C         4.00768788321677   14.09774734972494    3.05789119775831
H         3.52391425042315   14.38699953676913    3.98866529941584
H         3.57015692165556   14.68059745691293    2.25086570960581
H         5.06344642369529   14.35048180522427    3.12736708954805
C         4.46897268761400   11.79823399343654    3.93431666216428
H         5.55271047534642   11.92000704392718    3.88997743395716
H         4.13188856127481   12.20559831949144    4.89391274230667
C         4.12145900366361   10.33938365127578    3.89643014303187
C         3.01650812799348    9.91225917218127    3.22523041288534
H         2.79642663454052    8.85374346866410    3.17655542345806
C         4.94070153176516    9.37884699565231    4.57707942405596
H         4.63515406331172    8.34953026044870    4.44913224770811
C         6.00868717621004    9.66083216658835    5.35047446633849
H         6.30830019870768   10.69201341379276    5.48436257184859
C         6.83802898489371    8.70510134424995    6.04827117034681
C         7.97423241375199    9.17145796527018    6.72125638456366
H         8.20129394441225   10.22774324980646    6.70736112995345
C         8.81165258932738    8.31109381106336    7.39698299549356
H         9.68841344846803    8.68850943327719    7.90099558758875
C         8.52836139473261    6.94941489155523    7.41928659845415
C         7.39719408583783    6.46454022923538    6.76697527824510
H         7.15240606083226    5.41538792315800    6.83346387736255
C         6.56596346497432    7.33257011527744    6.09395801220430
H         5.68329535553731    6.93812671195136    5.61771842051375
C         9.97943688995158    6.28620472888914    9.31327576551490
H         9.89046688646749    7.21517524856049    9.83592887627978
C        10.59577534680635    5.12094037268373    9.65187812222725
H        11.19494768354965    4.89994864838056   10.51374245017062
C         9.63629536078673    4.78637656936643    7.76870804618209
H         9.32834270484392    4.34717664498784    6.83933987935361
C         7.23019544455698    0.15416065123205    9.80484287589220
H         6.65788193339481    0.65466799757735    9.04808748282276
C         6.84089240317089   -0.80133824862699   10.69200636205943
H         5.89905522616418   -1.28947544044600   10.83020440578223
C         8.95227667326885   -0.33780818972986   10.97605000985172
H         9.94490486928221   -0.34993732086087   11.38072664163980
C         8.02126715172667   -2.05807712339659   12.47216242115511
C         6.93060859077760   -2.26546169696403   13.31177304430073
H         6.03023527947512   -1.68590109078298   13.17869057436910
C         7.01251262645913   -3.19277104339731   14.32776893219289
H         6.16105684694351   -3.34147430110724   14.97550068539123
C         8.17536461481191   -3.94327550546091   14.54132053187591
C         9.26193137179011   -3.71803143039517   13.68827108260866
H        10.17726073831044   -4.27215462792608   13.81976410091537
C         9.18805063520485   -2.79278374316854   12.67014987517470
H        10.03140965683475   -2.64751580582596   12.01257813308039
C         8.19652230683476   -4.89969196935746   15.62512860506088
H         7.29866330283380   -4.91139732785360   16.22844843995161
C         9.19753541003502   -5.75503191587409   15.91402994921037
H        10.08163306763698   -5.76972654147523   15.29118158565774
C         9.20213998517049   -6.71246630637837   16.98294166148941
C         8.08879391571662   -6.74010635854414   17.98713959183790
H         7.24194371917417   -7.27897835248950   17.54778643134041
H         7.75617073617122   -5.72206168032940   18.19715743425783
C         8.48796284277369   -7.41657488306026   19.30724735416990
C         9.48095056780401   -6.53747188303145   20.07071814690135
H         9.79905683455607   -7.03348240817195   20.98497296176810
H         9.01909751006292   -5.59034354509109   20.34071161443441
H        10.36377327026188   -6.32734697665566   19.47108342684356
C         7.24273311018568   -7.63331437867581   20.16775693692364
H         6.52370078765262   -8.27257439034335   19.65945107478894
H         6.76161301104827   -6.68278925816275   20.38705628134609
H         7.51089617932476   -8.10452568079173   21.11022850198763
C         9.12875308599845   -8.77321230785994   18.98681117604087
H         9.43459778981222   -9.27788573833319   19.90590253177116
H         8.38321501105091   -9.41107534817303   18.49770127540610
C        10.28988321009152   -8.62348213407600   18.05766304099776
C        10.22606905232424   -7.60480565397797   17.06618237044818
H        11.03890674472333   -7.55561038132681   16.35319839536474
C        11.37161715073453   -9.46208363015800   18.14173186541062
C        11.46554812395772  -10.47530161037267   19.11640109357381
C        12.47066967917269   -9.37092564417828   17.26351033857729
C         7.10565454272894    4.25202432577498    9.82352199467443
C         6.15848924990195    5.49155468636472    9.99960714765721
F         5.28775925118207    5.64161130326027    8.98928567195109
F         5.43841091179918    5.44894153196642   11.12806704660670
F         6.87555411404140    6.63840146288510   10.04448143563932
N         0.59471496777177    7.82581065628929    1.52983388094636
N        -0.56420137724266   11.87224009345525    0.61274717718103
N         9.36246597448961    6.06172007537092    8.11325940969320
N        10.38215656680389    4.18627678017098    8.67382834486602
N         8.55273758767942    0.43772664455649    9.99637259155645
N         7.94756509135992   -1.11665165600298   11.43505055611615
N        11.54522474274689  -11.29733595547975   19.91331432912896
N        13.36502902315078   -9.29549216768498   16.54828562239635
O         7.11255255353664    3.73552533753345    8.70312611295388
O         7.76842421442840    3.95108538023248   10.81705277646192

