74
CSD_code = QIQBEA | q = 0 | S = 0 | Stoichiometry = C29H36N7ORh | MND = 5
Rh        9.36869382843048    1.73410735347427    7.60244243656004
O         8.19863495011144    2.58647830045165    9.12069320362365
N        10.03018071496258    3.59730644789652    7.16152245043006
N         8.19553084403141    3.87114431678117    5.83377027473890
N         5.58772638531286    2.80184726802377    5.87449728562783
N         6.19767092616690    4.26963786517059    8.41385148836415
N         6.65837254834452    0.56656450753633    7.24335684177654
N         8.62744958804565   -0.05818337288406    8.21407933936226
N         5.55571318786930    6.38090300193974    7.74245102396127
H         7.90980882351194    3.00222485495376    6.29587228633105
H         7.10402967328177    1.48841093563267    7.21300280078474
H         6.94127571336047    3.64940305536784    8.75901754527077
C         9.29843805079301    4.42074064574877    6.37915552049933
C         7.14584716134735    4.55122449363147    5.12505281003180
H         7.55008321903808    5.02840555601654    4.22520690717175
H         6.67621080027605    5.32461590173571    5.74426659009860
C         6.11439301301751    3.49727174794099    4.71031430921829
H         5.32309866671051    3.97988090729443    4.11553931341701
H         6.62153321245374    2.76996287737317    4.07173973841153
C         4.61477781136470    3.59929509377480    6.61387819094041
H         3.60253780833335    3.18827039049188    6.49035888619503
H         4.61076494328222    4.61884057616868    6.22559557563066
C         4.90943536792550    3.71105080439655    8.12120981484021
H         4.13082413148975    4.35741867571911    8.54396242955684
H         4.85761944538307    2.73440412178583    8.60352000633246
C         6.48270119458956    5.57793375837166    8.28181129956683
C         5.84374048154254    7.66732301149368    7.61130105375194
H         5.05419307838527    8.26646486013416    7.17200070521353
C         7.04525618335062    8.23503484758303    7.98172480814129
H         7.22607216081420    9.28962524778354    7.84603799089262
C         8.01371855243714    7.40049109425831    8.54184285059184
H         8.96822667244189    7.80337310536076    8.85171631925929
C         7.74061635085268    6.06564705197847    8.69744312348619
H         8.45314849661470    5.38208913617776    9.13241472809374
C         5.14190139186474    1.44912083489801    5.59763628082355
H         5.76722095808920    1.03490181129734    4.80326242204119
H         4.09307226304933    1.41711130460843    5.25721748895579
C         5.28868770970550    0.53028104707571    6.81926436126166
H         4.60234886761303    0.84271889697782    7.61724785191403
H         5.02074675440585   -0.48738053313758    6.51947724974013
C         7.32502990264092   -0.33973439583757    7.98715662707605
C         9.35018476669654   -0.91523036180926    8.93382789039761
H        10.38460990988199   -0.64618820227756    9.10411504359472
C         8.84474699526214   -2.08994659743926    9.44855760851822
H         9.47318272082157   -2.74509594923597   10.02826341178605
C         7.51042582758864   -2.39812608244540    9.20586475281462
H         7.07640238792959   -3.30666501508293    9.59495931653471
C         6.74471007175790   -1.52231251507890    8.47136509576614
H         5.70321682429327   -1.72378889481646    8.28152736800377
C         9.71259962029372    5.73660209472010    6.12095907435716
H         9.10928912406171    6.36984347604190    5.49213896824599
C        10.87006756122549    6.20224545560078    6.69930851668175
H        11.19921862183989    7.21464585295301    6.52100112739369
C        11.60505339436483    5.35396850108287    7.52275510025659
H        12.51119516157945    5.68707320476438    8.00132069879990
C        11.14655280760107    4.06858766228848    7.71737585064724
H        11.69527462243127    3.37826391173149    8.34769595272314
C        10.93236588722185    0.87838215245847    6.47082066607974
H        11.74852853742185    1.57417324367204    6.30085350593566
H        11.24246290620341   -0.08377399962643    6.86728910125701
C         9.78668118831035    0.95831318122622    5.68354519827221
H         9.21299539324269    0.05953596020970    5.47726090774032
H         9.71970246813680    1.72128331849090    4.91432688637036
C         8.40842958336719    2.20938619710124   10.35979233514367
C         9.66484887720243    1.74320714845767   10.77990101013086
H        10.46669572208765    1.71774992975241   10.03987000075746
C         9.87792489681974    1.33832581630761   12.07880155983044
H        10.85371592804244    0.97662576776201   12.37585533081629
C         8.85106349124500    1.39758068356288   13.00783893925456
H         9.01746494635761    1.07982911067083   14.02671730348856
C         7.61100930881693    1.87595409527678   12.61662260391132
H         6.80621862949066    1.93325316426945   13.33737216335119
C         7.38357512831131    2.27733074522222   11.31693601475631
H         6.41315485685103    2.65113953872788   11.01884846639927

