63
CSD_code = QIQDID | q = 0 | S = 0 | Stoichiometry = C28H27Cl2NO2P2Pd | MND = 4
Pd        8.58043584989104    1.58524529316472   11.92757027512812
Cl        6.48726790037421    2.38656429546575   11.72744074252575
Cl        9.32223200811050    3.44787568630269   12.96296517958467
P         8.19930675723283   -0.37204288362930   10.87121877378786
N         9.85468519690311   -0.85790624969551   11.10777537199859
P        10.56910625597111    0.51893837449060   11.87537861910044
C        10.64879580806999   -1.76497565112212   10.30643654208216
H        11.63775616025462   -1.84367604093606   10.78117621212064
C        10.88937859588399   -1.16808029272175    8.92149934455809
O        10.42385044070823   -0.12090081086428    8.55844779015742
C        12.00751554345664   -1.41409807337467    6.89113806703346
H        12.66909808255505   -2.14194321005773    6.43032293790704
H        12.49977633623653   -0.44436042029760    6.98255658090816
H        11.09579677605431   -1.29205539206393    6.30442013971771
O        11.69530158726088   -1.92442560182299    8.18419812841002
C        10.03861000772289   -3.16057952979512   10.20742725889520
H         9.96641927691802   -3.60952741654685   11.19486813175177
H        10.66252998295844   -3.78680677691967    9.57522446406554
H         9.04007904655007   -3.10638231851674    9.78337125431775
C         7.77741056925510   -0.22103812858745    9.10866156639257
C         7.47791406287466   -1.28061458188955    8.25963258136110
H         7.46315835874817   -2.29665722452967    8.63027752136975
C         7.18306685922679   -1.03371321225763    6.93096065082761
H         6.95371163274734   -1.85905312576400    6.27199536844497
C         7.17804650064271    0.26416130594629    6.44602399845833
H         6.94703738058197    0.44796329807009    5.40704543184008
C         7.46019438951639    1.32377992589056    7.29314648225821
H         7.44417726441262    2.33583687726788    6.91818977939844
C         7.75763630673415    1.08351339804245    8.62065424306246
H         7.96591352993847    1.90958458727115    9.30414043999439
C         7.23797301073407   -1.77181890274609   11.50241772131112
C         7.68849675573586   -2.45749734052767   12.62800477466007
H         8.64602871773351   -2.19447872493289   13.05765650474660
C         6.90919957370639   -3.44534671020607   13.19824019065217
H         7.26529271432672   -3.98050164751511   14.06645063837833
C         5.66186560536179   -3.73627740313482   12.66736525960257
H         5.05138347143925   -4.50589692637668   13.11547625518981
C         5.18755947294474   -3.02145902039223   11.57940954117209
H         4.20333965175347   -3.22732379962714   11.18557754517820
C         5.96542994912582   -2.03417903132690   11.00180192597167
H         5.58670366707243   -1.45532753725081   10.17118325172042
C        11.70835482163526   -0.17905494642019   13.09933173667667
C        12.58463646680825    0.73046279568560   13.69032569395705
H        12.57164105813679    1.76084468228392   13.35854360989210
C        13.44194628986576    0.31576773517994   14.69055071204291
H        14.12062737441338    1.02075965967098   15.14649052242139
C        13.42362073935205   -1.00491340393818   15.11431473944979
H        14.09371963994180   -1.33008393530745   15.89599453272654
C        12.53729970570172   -1.90510726448516   14.54635034235371
H        12.51503520078085   -2.93005097230537   14.88713100713687
C        11.67191837727422   -1.49423134515412   13.54750484860714
H        10.96916032368929   -2.19324285897426   13.11698406733018
C        11.68547013217404    1.28407262700407   10.65955627484692
C        11.17839174554448    2.37409896690055    9.95823951227380
H        10.18951369808546    2.76450978159579   10.22020497678215
C        11.92980151397282    2.96102317500317    8.95778648864589
H        11.53838415681495    3.80658783032213    8.41303032299786
C        13.18667559152023    2.46147176426066    8.65533614720338
H        13.77316249191825    2.91467700045256    7.86951934127820
C        13.69993961110568    1.38607488603941    9.36330798444024
H        14.68436320180029    1.00486111581570    9.13163267891756
C        12.95477326383462    0.79652422145164   10.36862970030465
H        13.36078353790572   -0.03547057156011   10.92928727368101

