61
CSD_code = QIQDEC | q = 0 | S = 0 | Stoichiometry = C24H22N12S2Zn | MND = 4
Zn        8.19095747947440    4.50374924504453   10.79888611787167
S         7.10404418359196    2.24509809822102    6.97624751299440
S         7.01760071260262    8.23588238412195   12.71816163145149
N         9.92525261758746    3.64206563273543   11.38128710755237
N        11.92882269150657    3.12771918761331   12.09588197236181
N        13.01578610591728    3.18555305813313   14.19376259053427
N        12.73110576663056    4.30201804158322   14.89980893346030
N        12.51384695961013    4.02147643984534   16.10802788239657
N         6.78630836377993    4.12518453407249   12.22617559199618
N         5.58525253730585    5.15620515886274   13.74141752119700
N         4.99461546546989    4.98848318285693   16.03113386988904
N         6.00488551341278    4.50227844099018   16.77929490681833
N         5.57311486092495    3.68235217004553   17.63525244521096
N         7.72036002390868    3.70426495045202    9.22448297650194
N         8.21677489657041    6.35351339113392   11.10243543168934
C        10.12142058870120    2.30428704459448   11.18660090997048
H         9.36447528008891    1.69493876312437   10.73759286612095
C        11.35737845710342    1.96807684632254   11.63263230399341
H        11.87458107810770    1.03174705848655   11.65108139812008
C        11.02098991714324    4.12155090833576   11.92961908877881
C        11.26298266400082    5.52760646036596   12.31376876171058
H        11.50527611814216    5.60269957029554   13.37473203675475
H        10.37489433230728    6.11352237535812   12.09436798204281
H        12.09660076322911    5.93827608077828   11.74449190951334
C        13.19594430236104    3.23959211833490   12.77324604904564
H        13.84618707773672    2.41865486007788   12.45578700739651
H        13.65595527232261    4.20282902197339   12.52941708865058
C        12.95614319913751    2.10557118937860   15.02881381787976
C        12.63345872552990    2.67396912332157   16.28598048478019
C        12.49524498181841    1.86849422640010   17.41540365662760
H        12.25016404268058    2.30230567145303   18.37035150450632
C        12.68535220970695    0.51763252658477   17.24538659236191
H        12.58776768122732   -0.14450786590668   18.09201097624178
C        13.00602006442841   -0.03526547283809   15.99730999168722
H        13.14523243963071   -1.10308478840425   15.92257423110554
C        13.14812888154196    0.74015365523505   14.86829013678503
H        13.39844487674175    0.30582026788520   13.91249536100245
C         5.48738681075709    4.16910805436820   11.79730725589918
H         5.20178542884708    3.73942047389412   10.85833657089566
C         4.73085735209965    4.80053783387769   12.72933804037092
H         3.68798830912225    5.03821848068786   12.75451805759268
C         6.81825310730005    4.71977558108599   13.40188213224821
C         8.01040683194485    4.88838728072128   14.26107089026920
H         8.31188018923726    5.93567531428295   14.28257723290223
H         8.82821453285900    4.30006521267882   13.85801907988967
H         7.79496659988772    4.57100644044760   15.28169387393379
C         5.23999611524318    5.88075285559542   14.93645246339952
H         4.34162235199140    6.47454724310892   14.74439858205118
H         6.06980502434209    6.54366089462634   15.20311672621650
C         3.82426262087855    4.41667713957059   16.43940224573944
C         4.22034088035652    3.56654008560063   17.50127703894274
C         3.27664725042575    2.80773644959833   18.19251997161099
H         3.57775915645337    2.16376226057048   19.00207055576396
C         1.96671962800424    2.92561259414846   17.79340168824568
H         1.20229725169328    2.35649038959972   18.30020594367555
C         1.58471738512685    3.76965379600246   16.74042561936758
H         0.54098223299107    3.82253739404082   16.47023407248862
C         2.49768358862519    4.52937615936825   16.04474638064628
H         2.19504534187858    5.17915554749237   15.23801137666591
C         7.45710357348260    3.08677691919450    8.25327684989039
C         7.68430730436627    7.16791204261292   11.76900670434828

