45
CSD_code = QIQLAD | q = 0 | S = 0 | Stoichiometry = C14H16N6O8Zn | MND = 6
Zn       -0.96082616085146    3.97745814698698    1.60646267917764
N         0.24502436776173    5.71130749543434    1.49666110520562
C        -0.47321225529128    6.76415840620699    1.90937871419101
C         0.14136784777435    7.89388386465354    2.44652252876930
H        -0.44961366298206    8.71956011180573    2.80546425276851
C         1.52179433447460    7.92435410926133    2.55081122733408
H         2.01511821254465    8.77839119213440    2.98907429169997
C         2.25331962288742    6.84077786135045    2.09367387843431
H         3.32862060754688    6.82196342417777    2.15787840148352
C         1.56391640960037    5.75324704470484    1.58020761756529
H         2.08898514038363    4.87630352766392    1.23108473362053
C        -1.92851929741269    6.65260968552260    1.78490945654916
C        -2.80337911800276    7.82925270810266    2.06493408323622
H        -3.81875067502498    7.60556758803060    1.74827569289393
H        -2.44525810755069    8.71565421576287    1.54621573094014
H        -2.81241980508072    8.02724823861526    3.13600044105021
N        -2.37652569276871    5.50673711765134    1.43105830884064
O        -3.71353184730066    5.36603118641626    1.27311074875832
H        -3.84361050251677    4.41775149398195    0.97779141849401
N        -0.91633761735323    3.47902140850753   -0.44987453868237
C        -0.37472839350034    2.26220445827756   -0.59309601914310
C        -0.66435831846410    1.46701264547220   -1.70064472767387
H        -0.24591520099679    0.47867015066366   -1.78906864015267
C        -1.53001418738910    1.94870353633787   -2.66792121212846
H        -1.78915893969626    1.33721425413032   -3.51861218821973
C        -2.06250234029658    3.21864451148488   -2.51956343864847
H        -2.74300381300680    3.63087302813082   -3.24598826686415
C        -1.72660164993792    3.94233020070376   -1.38615464436309
H        -2.13189858010488    4.92903469111146   -1.21670982561933
C         0.51288940237621    1.81051417612234    0.48125951827485
C         1.25735510224848    0.52305570181184    0.35406373040132
H         1.96223285579724    0.43203077107100    1.17629307889256
H         1.79166501239889    0.47111594892730   -0.59214588867536
H         0.55374358881638   -0.30684678523444    0.40756835643106
N         0.59197924132019    2.57621123881916    1.50442319300611
O         1.42479566632863    2.21427932704656    2.50858565459624
H         1.34791216874811    2.94708637333676    3.18575491545821
N        -3.01271599672722    1.99442330991139    0.96954682976378
O        -2.14619852444320    2.34918334623279    1.80959930027756
O        -3.16913882620529    0.82670423368310    0.72517237788907
O        -3.65632013553228    2.87478444463599    0.39128747790266
N        -0.08530840256900    4.78104547435376    4.27653192500025
O        -1.05890408282209    4.37761863718155    3.58959531254361
O        -0.26447190561133    5.56697005701482    5.16907509710544
O         1.04220445843805    4.37515744180550    3.97960731163016

