75
CSD_code = QIQPIR | q = 0 | S = 0 | Stoichiometry = C30H38O2PtS4 | MND = 4
Pt       -1.15860757181862    1.51969415451281    6.44224292895854
S        -2.42047089270256    2.27909878764671    8.17972455048725
S        -4.55344529342515    4.21318171703973    8.80352337665613
S         0.01837892094956    0.17539530738197    7.85288195072537
S         2.02720286857439   -1.99592396379386    7.82057122922427
O        -2.16804569686131    2.62957109808706    5.04853744424557
O        -0.07073715672387    0.96598109448850    4.79795412054676
C        -3.11537923942446    3.45794961344873    5.14184771608246
C        -3.75775903932897    3.87524105203421    6.31779737553107
H        -4.51224862967191    4.64273856754041    6.22217315135203
C        -3.52439450893285    3.43844130006042    7.60906317422886
C        -4.04368303654408    3.47070347405399   10.39168597425781
H        -4.19918413716234    2.39455648973750   10.31715449000461
H        -2.98038729168607    3.67122222663766   10.52239061534398
C        -4.86936949945081    4.07796766671404   11.51358512576854
H        -4.71923544012878    5.15958888607964   11.52734016495142
H        -5.92858135351148    3.89279846504429   11.32281124355853
C        -4.48111056867134    3.48856403161108   12.86788297387517
H        -4.62911348307099    2.40649723124781   12.84751910073790
H        -3.42049025932880    3.67351407203539   13.05240875853014
C        -5.30643458792404    4.09261869615323   14.00133026764532
H        -6.36653135361738    3.90660327445216   13.81434491406159
H        -5.15948312152226    5.17500415943882   14.01727223520800
C        -4.92637705170874    3.51336716839845   15.36182055797740
H        -3.86653760741885    3.69951686977335   15.54962846494026
H        -5.07424394569767    2.43118897228264   15.34706863728001
C        -5.75470413325879    4.12253497630920   16.48619941817658
H        -5.47002347439543    3.69761550503787   17.44582317101161
H        -6.81362340354176    3.93118173390253   16.32655561164746
H        -5.60533021138453    5.19921747060923   16.52960407253509
C        -3.55953137807969    4.06077824410219    3.85782384047377
C        -2.62429176339294    4.17477392369469    2.82995490167670
H        -1.61444143065824    3.83618238680625    3.00747924257424
C        -2.98446666572782    4.71635503153864    1.61140628366874
H        -2.25000140774933    4.80769373720964    0.82481771027088
C        -4.28682351888349    5.13823663904351    1.39864297811603
H        -4.57125510589765    5.56059187113587    0.44620286572166
C        -5.22711798841493    5.00832202183200    2.40775414506233
H        -6.24680989225510    5.32167168202542    2.23841756045924
C        -4.87021269724664    4.47344865870441    3.63201294937598
H        -5.61987047802011    4.35326432953166    4.39919834270340
C         0.85080356693098    0.12012524458746    4.63193998947091
C         1.40780110767271   -0.72291890487256    5.60655618592802
H         2.14034340543648   -1.44404213495325    5.27338447486210
C         1.11062965501530   -0.76762325459553    6.95612440031466
C         1.53771790214983   -1.83197539019184    9.56678445391616
H         0.45875339510029   -1.68468012090509    9.59377593632572
H         1.78623760462081   -2.79707084727898   10.00891811256026
C         2.27570023399318   -0.70327832431185   10.26722775485758
H         2.04217938931957    0.24207259828690    9.77460433087910
H         3.35175510774190   -0.87194689868285   10.18593855451810
C         1.87537197162021   -0.61896975121883   11.73822691349933
H         0.80012894696415   -0.44063494876435   11.80728732596617
H         2.08732783753075   -1.57284752848625   12.22762235562695
C         2.62239971636489    0.49818678765033   12.46212751790823
H         2.40247331111483    1.45131204781386   11.97641868165561
H         3.69812337625989    0.32531457532767   12.38039564466996
C         2.23803610480750    0.58290427899822   13.93724052229594
H         1.16370252765096    0.76217045303802   14.01960757200989
H         2.45163869754802   -0.37318040844082   14.42082457520998
C         2.99432094080415    1.69334570285861   14.65599900013318
H         2.70649206898817    1.73757356729158   15.70379360509818
H         2.78026005506186    2.65735983298937   14.19979093387526
H         4.06707019347231    1.52083550668004   14.60188815063028
C         1.36160743106690    0.00361254991414    3.24110190981782
C         2.67505882426628   -0.35458876845078    2.94831453622189
H         3.37700368032497   -0.55107599441013    3.74434362804821
C         3.09681588558871   -0.42649811026049    1.63331948326114
H         4.11834634414648   -0.70040846745686    1.41397518727441
C         2.21898342913412   -0.14441560848100    0.59928370017750
H         2.55371069577852   -0.20667794921342   -0.42567379942541
C         0.91486949220605    0.22678401052523    0.88378353956296
H         0.22931640610731    0.45578390505985    0.08123626039217
C         0.49035724863642    0.30743447763406    2.19572676409797
H        -0.52146402763531    0.60116924866879    2.43235816272343

