45
CSD_code = QIQPEN | q = 0 | S = 0 | Stoichiometry = C20H18O2PtS4 | MND = 4
Pt        1.97141881800412    0.30397192422901    3.83027574644919
S         3.08362062069842    2.25224606937494    3.45015954002378
S         3.45328234977858    4.95630993335389    4.55165009083398
S         2.80207445865749   -0.55124810270465    1.89204061739814
S         2.64211911765146   -2.92430731241572    0.15845023479098
O         1.14652177921722    0.96349351873120    5.58755122473792
O         0.93079090751549   -1.40146710989960    4.29184137658498
C         0.80863962098300    2.92551171640053    8.54122604006975
H         1.72492972635908    3.49489753018791    8.50560312776360
C         0.03640454552983    2.94636855399059    9.68825109488581
H         0.34515709545203    3.54968818688866   10.52922613412468
C        -1.12511225085571    2.19526485039365    9.76518711671269
H        -1.72600873346468    2.21964695609435   10.66222281961982
C        -1.50802183533162    1.40603963068753    8.69294505712528
H        -2.40829982488109    0.81231766272446    8.75181903637244
C        -0.73583911411899    1.37551303831710    7.54827404885042
H        -1.01847182427149    0.76088569476019    6.70707778427210
C         0.42236526236938    2.14563945014366    7.45431505109634
C         1.21516886824663    2.06484269163569    6.19947799724685
C         1.92765797509589    3.20857974696018    5.80463057097873
H         1.83611866913198    4.08614239079199    6.42843194299066
C         2.72284891649092    3.36181065054883    4.68436202788418
C         4.41416849630153    4.87225893642742    3.01944928288430
H         4.87619519565558    5.84723627093616    2.90241824623506
H         3.75041573886779    4.65990848083842    2.18716761687663
H         5.17000447430946    4.09814894415016    3.10782889637788
C        -1.09493373287990   -3.01928506479759    5.20063362622563
H        -1.22138256279688   -1.95213541963526    5.30256958481867
C        -1.92750284670272   -3.89698559460253    5.86691808922834
H        -2.71878225830081   -3.51691781587309    6.49607886789318
C        -1.74443845557964   -5.26338519172944    5.73043623884129
H        -2.39319601518079   -5.95205296066240    6.25121050501810
C        -0.72015102041293   -5.74520068181116    4.93179303206588
H        -0.56527049880274   -6.80991996351220    4.83727814623228
C         0.11132192714857   -4.87053975207797    4.25655151025488
H         0.92180441224555   -5.26033510073037    3.65975155375594
C        -0.07648954743655   -3.49598804973662    4.37660801282005
C         0.79148711963268   -2.50258191103790    3.69153255499695
C         1.33893966475047   -2.86277477239329    2.44950555761439
H         1.06629862760737   -3.82998898887758    2.05235088973763
C         2.17423608878150   -2.11000724217399    1.64563271806770
C         3.69981509635415   -1.72166624341960   -0.68582618794791
H         3.99990610640642   -2.18968591641899   -1.61783697873663
H         4.56649272890000   -1.50523658850144   -0.06915990110794
H         3.13499611287877   -0.81451304553895   -0.87661054296786

