114
CSD_code = QIQQOW | q = 0 | S = 0 | Stoichiometry = C30H73N6Si4Y | MND = 5
Y         2.35638617734867    7.39031871750871   16.37327286849342
N         2.99541572085429    8.61205052238241   18.40454699949137
N         1.60582424335999    9.51113647385053   16.90162359107560
N         2.17826523333381   10.83136181002652   18.80805798965731
N         0.52887056198677    6.24431349554005   15.21297110690263
N         1.43338503256921    5.38937580275570   17.06594356410607
N        -0.43167036155361    4.23786533322257   16.11560636824709
Si        3.37053787727657   12.06690587692773   18.44873701911908
Si        0.91640132175424   10.84665583364895   20.02634078815420
Si        0.01860022246815    2.76901929379766   15.26963364102537
Si       -1.95288266367329    4.61201310038463   16.90535701946587
C         4.21537544954228    7.29362112843260   14.90799910549291
C         4.34440153152228    5.92766004454582   14.19004178747904
H         5.20240253678999    5.93850635217756   13.50371480132027
H         3.45529472519623    5.69982705521751   13.60228591176920
H         4.50502896574184    5.11751720745000   14.90441914863652
C         4.11860131153089    8.36048046619154   13.78802058123997
H         4.98064364723300    8.28048214776577   13.11139143318867
H         4.11724721369916    9.37121329859304   14.20023706376512
H         3.21657928197814    8.23146486425569   13.18600438178365
C         5.58122538051669    7.53061208498753   15.59660055692991
H         6.39114302113662    7.48954333281032   14.85526629835821
H         5.78627296309744    6.76561586515195   16.34824365367113
H         5.62413752399199    8.50880649647681   16.07587306846572
C         3.84268198837469    8.68624354392999   19.58065230761975
H         3.74338819355955    9.67495803078985   20.04487551233415
C         3.44902881618652    7.63355702825932   20.62088968439297
H         2.41479341214189    7.76985211881017   20.92453256735736
H         4.08447707553161    7.72675873578745   21.49967115231694
H         3.57066117702842    6.63430545768965   20.20891546464492
C         5.30466301346698    8.47977393837380   19.17332064058392
H         5.61195474570961    9.24918425654980   18.46969526983356
H         5.41864893062482    7.50712750445856   18.69696986153240
H         5.95103794185649    8.52330022622378   20.04777047418386
C         0.75624792171269   10.55710356315406   16.36965737067485
H         0.93028586166171   11.50024854022135   16.90573059340530
C        -0.71535701251015   10.15586706771000   16.52288500499535
H        -0.98240418980038   10.09976409115327   17.57408837590451
H        -0.86614012853667    9.17558820982892   16.07520131916050
H        -1.36408871614285   10.87815911229361   16.03072769550039
C         1.09749297686161   10.75575679896220   14.88932214938159
H         2.10623768747679   11.14648878021500   14.78300266617657
H         0.40154652040971   11.45108681269534   14.42421718509390
H         1.04485297795142    9.79320769573595   14.37510658577760
C         2.26443797009346    9.64665177636924   18.04072235961774
C         4.26930021756965   11.61800361738841   16.82713418391852
H         4.11305024521503   10.57082232563855   16.57961739514667
H         5.33895823582548   11.78993858848626   16.90691038952662
H         3.90815963471639   12.21369012817059   15.99388433069115
C         2.51472549985086   13.76183252593649   18.26501179044508
H         2.18413542588273   14.13998789582985   19.22613360244214
H         1.65351291857677   13.73310027362831   17.60602968393804
H         3.21543271992518   14.48404087034103   17.85862408685037
C         4.67823037002777   12.25357832482055   19.83222205971049
H         4.22359481372713   12.31325591311849   20.81524526292587
H         5.24233457783808   13.16904253496746   19.67993050665897
H         5.38849442258160   11.43298826117726   19.84810700573118
C        -0.34276763593907   12.24627613674820   19.69839177193832
H         0.08456439642769   13.21848924614905   19.91693296004984
H        -1.20837613690838   12.12422220599170   20.34249121145031
H        -0.69625183570737   12.26674135930346   18.67311451296630
C         1.66482037600511   11.16433047961499   21.75434163291387
H         2.08688940521434   12.16164751451256   21.82252081578322
H         2.44454819664490   10.45392130468726   22.00996038667659
H         0.89141542707501   11.09008596880588   22.51241867969668
C         0.00342283937319    9.16828176240933   20.04048026801191
H         0.15510090950956    8.64294801105565   20.97930960767266
H         0.35432479915296    8.52364892858620   19.23852226892505
H        -1.06852659986704    9.29582947617925   19.91821032917985
C        -0.31761256275465    6.15946597908961   14.03827971391968
H        -0.95043898965031    5.26568238768899   14.09977340986760
C        -1.22905588591101    7.38362885325619   13.92299799365780
H        -1.88000982326706    7.45184492913391   14.79051915100002
H        -1.84638631197777    7.30551636905504   13.03001584690118
H        -0.63026368971100    8.28962636159619   13.85537229565242
C         0.56145252676443    6.05104221941055   12.78747387497079
H         1.17724553021581    5.15618181624374   12.83916333589755
H         1.21423704786794    6.92066954054868   12.72234693765388
H        -0.05465653635047    6.00363642191881   11.89167569727274
C         1.54887258989248    4.43472355597608   18.14802655480269
H         1.01253431818203    3.50730469793308   17.90117041645184
C         3.03540146648739    4.11605846858463   18.33964412982593
H         3.43008262966916    3.61640366274778   17.45790835796796
H         3.18527462303019    3.47299535441131   19.20461204172770
H         3.58794445011308    5.04852410830698   18.48213389538088
C         0.96134632174562    5.02878528567674   19.43358737109291
H        -0.11473894012352    5.13892178391867   19.33874688968988
H         1.39488518226682    6.01292182765628   19.60224688129958
H         1.17791048261229    4.38973494196416   20.28769379966309
C         0.51418785113492    5.28903289771275   16.12095482758865
C         1.89603227953770    2.79185786943132   14.94296553173434
H         2.27767485216933    3.80758258521017   14.98411261349458
H         2.13317516421851    2.38260923337426   13.96563707317239
H         2.43665594838797    2.20515115432571   15.67930893875973
C        -0.88901888268264    2.57136806337180   13.59690620595929
H        -1.95316892792977    2.76269556309378   13.68687193492502
H        -0.77224522483410    1.55395076354740   13.23524949249949
H        -0.49997932970454    3.23491040993824   12.83109652643239
C        -0.44037407644052    1.24864658567578   16.32534667129933
H        -1.51464495537161    1.10594026609948   16.36224778884793
H        -0.08078191833661    1.31682791071747   17.34649731265135
H        -0.01047954428412    0.35479147642301   15.88464484897977
C        -3.40989565041891    4.43357018020714   15.68260285487557
H        -3.51827998569086    3.40670110018793   15.34868029857086
H        -3.30045605777684    5.05987415263610   14.80291011842862
H        -4.33855038561077    4.71257456368863   16.17077813403382
C        -1.92261716157563    6.40026853927284   17.57877016234218
H        -0.95239075092026    6.86582783096878   17.41951061832673
H        -2.13278073096283    6.43070054164379   18.64395501704755
H        -2.67036134215219    7.01861639642900   17.09055756229290
C        -2.28491127621244    3.39764880944539   18.34415455281762
H        -1.39125024932059    3.15393617086574   18.90854196172071
H        -2.70429954831019    2.46706457098079   17.97805430409613
H        -3.00659183019871    3.82273025261704   19.03566832263740

