69
CSD_code = QIQXIZ | q = 0 | S = 0 | Stoichiometry = C39H26CrO3 | MND = 9
Cr       -0.28197668229993    6.03960298614617    4.65919859135395
C         0.29784165897548    6.20371274103681    6.85451521681627
C         1.25894260401990    7.11410809892093    7.50621082570126
C         0.95823633355628    7.68697583419153    8.73872834545939
H         0.02185557733383    7.45068301460946    9.22630442623305
C         1.85866530244283    8.53882963490012    9.35210536502736
H         1.61743811713054    8.97337019106709   10.31117698708004
C         3.06388179073788    8.83358223491954    8.73857452023140
H         3.76520528709886    9.50023222149074    9.21757933635511
C         3.36429020866153    8.27634160142246    7.50600020788623
H         4.29801879943892    8.51269842758395    7.01865244217836
C         2.47044640829402    7.42107428105767    6.89128619555988
H         2.69645105173599    7.00258932761952    5.92057452644060
C         0.69175877869119    4.92829465991400    6.40767177824679
C         2.06346089018601    4.43731375153645    6.65670925565690
C         2.56271557076817    4.41084105575522    7.95657577483562
H         1.94583508119753    4.75545813535064    8.77517042656981
C         3.83689889134899    3.93750720377849    8.20669320042741
H         4.21239069248265    3.92164468323143    9.21928859253514
C         4.62701865412252    3.48464042029475    7.16397840812167
H         5.62253194009847    3.11581882391236    7.36069211798724
C         4.13711680024753    3.50868527967216    5.86869254427598
H         4.75048253637221    3.16100739283071    5.05115161983561
C         2.86337466424738    3.98032669948076    5.61344570465837
H         2.48945614017775    4.01355188361117    4.60048847594521
C        -0.26769606941567    4.07562850945861    5.79227651773002
C         0.12080267348389    2.71692916045260    5.35335802303682
C         0.65785413174166    1.80331578466346    6.25529735454635
H         0.79621959984365    2.08597898064610    7.28970588336411
C         1.00576549124275    0.53261187318997    5.83630598307545
H         1.42176487391904   -0.16850189908873    6.54474357017400
C         0.82207172174679    0.16100099043219    4.51555503115829
H         1.09722409741638   -0.83097410315545    4.18980894942212
C         0.28592281381828    1.06513169374084    3.61351007554333
H         0.14337980470467    0.78143488860280    2.58175584763389
C        -0.06554226437833    2.33579158604289    4.02761539720448
H        -0.47082365056726    3.04806965440176    3.32139018391711
C        -1.61127920235861    4.47986222128710    5.66598654665115
C        -2.63170907507056    3.54515109640921    5.14409033078462
C        -2.82871470051260    2.31073188900726    5.75761434103195
H        -2.22823239494943    2.03399607467684    6.61300134864924
C        -3.79578559209382    1.44273542157952    5.28665623748658
H        -3.93930128400846    0.48833761218328    5.77152813018533
C        -4.57805896204328    1.79605061814921    4.20049201642924
H        -5.33248121923004    1.11639386546641    3.83344708728618
C        -4.38889257099096    3.02309852262369    3.58671853676795
H        -4.99397916112189    3.30317250406926    2.73766427529072
C        -3.42370778363454    3.89468915852949    4.05439223652488
H        -3.26833482072982    4.84573060986556    3.56589469478795
C        -1.99968490551532    5.77025195325124    6.12198088931624
C        -3.40737973653384    6.21341175817651    6.06873510665110
C        -4.41965549424961    5.45768491310089    6.65309110322716
H        -4.17883501172093    4.52985779500620    7.15208121270716
C        -5.73052607130998    5.89424066072570    6.60473837097833
H        -6.50863048615815    5.29944140697015    7.05979239673598
C        -6.04492104955372    7.08669123429707    5.97525203185713
H        -7.07040241330797    7.42194418928241    5.93343647848664
C        -5.04091177712648    7.84788952345130    5.39965922035593
H        -5.28135450909084    8.77783628340803    4.90674987910218
C        -3.72793004862104    7.41809747439231    5.44862271888608
H        -2.94381655494490    8.00005463931998    4.98244178356851
C        -1.04715564533589    6.61015321491681    6.70738344664752
H        -1.35815310560687    7.56641158324732    7.11470553867824
C         0.80153693292121    5.52010841264783    3.29366075676724
O         1.45439089471944    5.27533953033844    2.36849502845224
C        -1.29784432241186    6.46290870481909    3.21111861296058
O        -1.85372799765135    6.77892938639465    2.24500758773054
C         0.44378729360020    7.64837077650125    4.21812673184174
O         0.89531045402016    8.65251926218842    3.86504762094618

