69
CSD_code = QIQXOF | q = 0 | S = 0 | Stoichiometry = C39H26CrO3 | MND = 9
C        10.52272014651805   13.44796615464997   10.27790715646667
C        10.96294020460135   12.04131683831774   10.32222633892032
C        11.29034859411393   11.42472207473994   11.55400582217149
H        11.16857510881003   11.98247808785770   12.47483736386763
C        11.68915022863470   10.09182298106603   11.59014122779966
H        11.87420400906013    9.60647538453539   12.54090392989733
C        11.76228370106432    9.34148839245572   10.39764316698260
H        12.00157664560284    8.28578773420103   10.44163576607947
C        11.43547172387597    9.93657455079499    9.18174550951270
H        11.41590158008062    9.34692034973085    8.27259966295458
C        11.05167979046054   11.29171505305725    9.14169936247570
H        10.72926226901791   11.73246294913903    8.20455679589183
Cr       13.05445438709868   11.21607870095203   10.15557464936723
C        13.88446326665251   12.75494685690158   10.65522714256946
O        14.45646649915702   13.72681221715811   10.91266338095040
C        14.03549586593906   11.54544049645945    8.65749978113361
O        14.70909129525245   11.79930318698439    7.75260810399447
C        14.63418158271275   10.49048816005078   10.70797806774552
O        15.67435731955694   10.09770866162051   11.02171878801910
C         9.45454666747354   13.90253392018566   11.05808716973036
C         8.71262971198360   12.94961345706386   11.90737250976051
C         8.15181542697098   11.80392041862439   11.34988250940971
H         8.23397941287678   11.63386824298739   10.28475578070593
C         7.47312044216662   10.89717626346051   12.14270283334674
H         7.03757567309616   10.01438178766816   11.69708422923721
C         7.34976637140817   11.12034175204432   13.50362179358072
H         6.82049064817613   10.41143442600871   14.12282748836124
C         7.90631623106177   12.25650327387571   14.06703567234257
H         7.81399939056376   12.43473672117047   15.12824222887516
C         8.58292643301243   13.16594280831028   13.27603926681267
H         9.02476046291703   14.04615877447230   13.71950815176270
C         9.10747909966978   15.25650707744632   11.02619913370380
C         7.97728886107334   15.73783761297772   11.84790401928916
C         6.70714051308073   15.19543230068028   11.68226315513627
H         6.54885986639520   14.42518943185713   10.94072497795251
C         5.64852496943561   15.64499202495400   12.44912169881760
H         4.66586096106749   15.21852406164490   12.30930727265976
C         5.84647846937296   16.63784631669546   13.39349951357575
H         5.01911667152027   16.98791803158768   13.99286930791397
C         7.10862988762423   17.18045419005608   13.56664696770959
H         7.26874495421445   17.95462335155760   14.30265827006718
C         8.16796705404641   16.73555500965725   12.79831865941569
H         9.15332799688078   17.15569475322699   12.93894429348318
C         9.82430400369315   16.15298260714217   10.22774843288433
C         9.47129714375489   17.58664470854110   10.22840936674618
C         8.18667522926695   18.00400896220415    9.89544724366999
H         7.44137647360053   17.27086879059805    9.62201934646630
C         7.86579519282849   19.34852825739345    9.89839318398717
H         6.86595275179075   19.66129246781160    9.63471058573840
C         8.82134201164159   20.29129131530102   10.23775419339546
H         8.56871560086548   21.34130913527979   10.24132937660532
C        10.10187289735716   19.88344551188823   10.57152891779882
H        10.85096125914391   20.61481061523606   10.83733156079269
C        10.42709946916910   18.54017673962982   10.56511049255468
H        11.42511882305081   18.22222834719402   10.83007565609713
C        10.88735547713411   15.68874642653977    9.44299376290137
C        11.67411285439000   16.58845813952087    8.58116394570131
C        11.05617004859848   17.45948800302170    7.68877160443836
H         9.97862819009328   17.47620559072430    7.61600040874607
C        11.81482635486541   18.29038689592471    6.88596207974566
H        11.32448062415513   18.96170666728809    6.19610534417062
C        13.19728453065784   18.26315906500673    6.96415041894737
H        13.78766616205919   18.91739418380445    6.33974954188781
C        13.81960500282500   17.39111424376620    7.84148425600630
H        14.89725795847339   17.36127099225832    7.90318975095083
C        13.06485274944324   16.55400005407870    8.64237550702483
H        13.55299016254262   15.88153056774815    9.33295002762005
C        11.21713402370031   14.34135841907327    9.47399724357596
H        12.04475461053620   13.98239845408263    8.87655883108729

