68
CSD_code = QIRDAZ | q = 0 | S = 0 | Stoichiometry = C38H27AuNP | MND = 2
Au        0.86600619893623    3.93298016605207   18.86207581548679
P         1.70123436428967    2.30578941524193   17.50701284622621
N        -2.30592238170073   10.23564972479069   24.06557609553789
H        -1.62642065867275   10.74257124918990   24.61168605049687
H        -3.02256319618386   10.82367476643929   23.66873593716240
C         0.15892982457710    5.34180251520524   20.00932738997541
C        -0.27633088114686    6.21791022217820   20.72075121263347
C        -0.78275890560514    7.24442670133886   21.55584755043780
C        -2.03070767067694    7.81772020989297   21.30626889580892
H        -2.61250521148306    7.46959794050099   20.46395067081401
C        -2.52050577292170    8.81974269490800   22.11672342744750
H        -3.48872319889357    9.25864497948258   21.91398345411350
C        -1.77956408803423    9.27968002810512   23.20463640209240
C        -0.53197537806769    8.70965210764687   23.45489423541446
H         0.05074613000751    9.06267267283269   24.29574919627439
C        -0.04210298000463    7.70768665738072   22.64452027198272
H         0.92754109421971    7.27366462386807   22.84593777632409
C         3.36860523427171    2.63840469672450   16.86111914828468
C         3.63182249841349    2.62887281565153   15.51105671669382
H         2.86431535086772    2.33898326799163   14.80749915264552
C         4.89467110637082    2.98998766896905   15.02372517409600
H         5.07090328439560    2.96818638327801   13.95829457950943
C         5.88604758650623    3.37043464624483   15.88376653586352
H         6.85869157795471    3.65776757339841   15.51091381745055
C         5.66125933440427    3.39206542957419   17.27634580471931
C         4.38725600848220    3.01839354105392   17.78016667276159
C         4.18665553260559    3.01686072934221   19.17403987846880
H         3.22360136937139    2.71336103672222   19.56631086987931
C         5.18565631166399    3.38674954663398   20.03045521044242
H         5.01273902274678    3.38508860863876   21.09614032524552
C         6.43950826324152    3.76951640489367   19.53186635603140
H         7.21858721687195    4.06076651549657   20.22067080400903
C         6.67214049307242    3.76873151233890   18.18521108338397
H         7.63738461445769    4.05486524344416   17.79225564161195
C         0.73452867081796    1.96128693192552   16.00463938915544
C         0.31359059700084    0.68759636956757   15.69983677578006
H         0.62367348260479   -0.14990866047445   16.30859400248866
C        -0.51763259684800    0.45082871143206   14.59741118213440
H        -0.82640537473716   -0.56161031896656   14.38204253999225
C        -0.93793842145896    1.48699943542881   13.81189391056951
H        -1.58773615196576    1.30960878930033   12.96697449895541
C        -0.52959944567991    2.80910924567213   14.08618993515629
C        -0.94176294071070    3.89403374901446   13.28440703995119
H        -1.59430741549891    3.69599501700649   12.44605866266171
C        -0.52452086926429    5.16627525252327   13.55781745905465
H        -0.84711930603829    5.99155439572328   12.94046471843542
C         0.33266783854527    5.40899749345822   14.64114128869966
H         0.66212761309995    6.41639608420385   14.84609709047278
C         0.74972590408167    4.37745800516036   15.43502186203157
H         1.41989384221333    4.57031872339764   16.26392624084432
C         0.32416806947900    3.05697231535475   15.19367743689358
C         1.87447325677436    0.66184499359300   18.26744034196550
C         3.07410909565969   -0.01124000298097   18.25992600991066
H         3.92277254509596    0.39172339961751   17.72549515199710
C         3.21832860074279   -1.22787722908467   18.93926160137546
H         4.17218422039025   -1.73391839898857   18.91059446102388
C         2.16943145296613   -1.76223799149853   19.63330777095463
H         2.27980242395302   -2.69578067718814   20.16613878161720
C         0.91965256041373   -1.10869431072666   19.66399779610936
C         0.76101158955730    0.11955257847845   18.96904862880499
C        -0.50074292390427    0.74460673240513   18.98221225059491
H        -0.63413456826268    1.67017639553052   18.43524316696227
C        -1.55034076507719    0.19939108274219   19.66722069250863
H        -2.50932438319086    0.69514596806897   19.67203251744615
C        -1.38918316940362   -1.00572314021659   20.36656826023417
H        -2.22684002888353   -1.42298077535072   20.90545027189117
C        -0.18216985639622   -1.64646790716225   20.36150176420029
H        -0.05080564041964   -2.57913455241607   20.89135149980065

