113
CSD_code = QIRGUW | q = 0 | S = 0 | Stoichiometry = C48H58ClN2ORhSi2 | MND = 4
Rh       11.85849267203283    4.11565747636114    1.59248710604644
Si       13.66823281856842    4.03974667090916    2.98736749225574
Si       10.33542280491575    2.52132577709904    2.41384674752034
Cl       11.32055198466539    6.20806179023397    2.51064173110411
O        13.01492832815618    1.37706038525679    3.09409689273273
C         8.89782157479486    3.83664941744353    4.56226658401105
C         9.70695420076326    2.73223329130693    4.24054863379505
C        10.00399772704258    1.82423566017244    5.26755883566193
N        13.82291482496576    4.97230932613147    4.56770930687295
C         8.75881677784866    2.63843679350197    1.28433507831330
C        10.99462546845466   -1.28225890126813    0.70935446503922
H        10.46542622977271   -1.95892645536898    0.05446068663871
C        11.05816465181548    0.79306058434993    1.93607512064770
C         6.56468499172122    1.83029313842512    0.67458157636630
H         5.72433989326484    1.17895150088827    0.87366491634722
N        14.62536429905146    5.62449884421939    2.72915341998097
C        14.95845818926029    2.64812426913828    3.06340395614732
C        15.09569113035307   -2.10159498076906    1.75093481869006
H        15.26059846887471   -1.73753743967473    0.73945861434209
H        14.54481547966499   -3.03690964648313    1.70632354846076
H        16.05641615868709   -2.31818278760686    2.21002453631219
C        12.34902112717141    0.45037619840195    2.33203684624318
C         8.69817345082905    3.51253813901217    0.19712750895336
C        13.32033705890579    4.79580118562313    5.91112022133532
C         7.59560384044969    3.50843013428694   -0.65035236733676
H         7.57267920685183    4.18681489155610   -1.49258960508580
C        12.96541894363547   -0.74855535873142    1.98109752238992
C        14.32910163704204   -1.06854229469097    2.57813037137833
C        12.25983251369312   -1.61526850941059    1.15723691762470
H        12.69082859054866   -2.55539039515281    0.85350181124752
C        14.63808970174204    7.32999299612468    4.55336231064110
C        14.10092520842340   -1.63237263911819    3.99510754496907
H        15.05550198421267   -1.86108191485676    4.46505018569650
H        13.50516026484055   -2.54132180568401    3.94393446200497
H        13.57454966909108   -0.91077243317012    4.61548354166273
C        14.37562013801203    6.01091272116969    3.96406022054921
C         9.75179389723355    4.54262541745993   -0.06680586849405
C        14.37012856321959    1.39288485915456    2.96032620765352
C        16.47864138427159    0.35729200591951    2.63956677453857
H        17.09409470926791   -0.50874428104406    2.45522859849517
C        15.09715577166230    0.23415814184057    2.71108467254972
C        13.08410914348378    3.29414455511566    6.06634768016577
H        12.36584952611687    2.96865106164637    5.32061521385255
H        12.69141354522282    3.07013319128377    7.05428585613258
H        14.01328146844310    2.74814103387450    5.92035016209024
C        13.60348932668806    8.25807002345862    4.63134521312629
H        12.63145863728197    8.00006655964810    4.23847877906309
C         9.58166472125557    2.06941273230374    6.56731894996276
H         9.83206055531265    1.35840955002731    7.34323198220831
C        10.40083275523872   -0.09374678405182    1.09682324201107
H         9.41932906728349    0.15239111689968    0.72380205706532
C        10.75555208019891    0.54881090648821    5.03796062008137
H        11.79899638041924    0.75878958776357    4.82668119262200
H        10.34898487493149   -0.00727119713841    4.19781433885820
H        10.70628310043964   -0.08135130285170    5.92370648322039
C         8.84972445522677    3.19596195412151    6.89983580175806
C        14.34606089909329    5.26430279856501    6.94947548794032
H        15.30993571623932    4.79424967557853    6.76491136990560
H        14.00789342625492    4.98382438341337    7.94372169729462
H        14.47143990889577    6.34355159369127    6.92299057462886
C         7.58310052209495    0.92632149174039    2.74120749747824
H         7.41908525592886    1.52896219964583    3.63346893649555
H         8.50198028597053    0.36653851928205    2.88433466949302
H         6.75800003590072    0.22313093566609    2.64879697688972
C         5.33412936575307    2.66401955439225   -1.34724852572278
H         4.94819721709340    1.65553951784537   -1.48160247078471
H         5.59087476215319    3.07670511178146   -2.32005484143214
H         4.53731528911539    3.27328779316843   -0.91900225272171
C        14.68279217803140    5.53940580712705    0.34682013272005
H        15.13999455913055    4.55362225397688    0.39650101249327
H        15.00124094076105    6.03480362996101   -0.56712394847412
H        13.59058401915845    5.41644178168852    0.31448808606034
C        14.39584211690982    7.74365689874954    1.47450144745825
H        13.32274962758740    7.63993365203369    1.61781009407055
H        14.57646514526700    8.17123672403457    0.49097518057210
H        14.78297890294187    8.43087089888988    2.22218388928933
C        15.90306275713808    7.66090588527755    5.02627762860029
H        16.70119281010051    6.93403789288447    4.97587008004401
C         8.49740034948650    4.05475026687121    5.87371516434138
H         7.89111415835611    4.92111356963790    6.09986751403857
C        16.33890686935953    2.73103902210982    3.00331745133923
H        16.82068688714282    3.69306933588357    3.09588798029216
C        17.09404098449895    1.58679292782537    2.80973483669255
H        18.17173040760080    1.65095814089577    2.76695200290963
C         8.40444906069977    4.80030895828080    3.53283682892903
H         7.77848795786279    5.56167172777561    3.99293735826268
H         7.82246137846608    4.28985670541753    2.76965049072810
H         9.23705367243254    5.29967553244521    3.04641173519697
C         7.65361733376392    1.81232825050243    1.53321323274835
C        15.06979587159889    6.37021720676776    1.57241283036571
C         6.52340378035136    2.66082031793012   -0.43547641199645
C         8.40935148189047    3.44990152795983    8.30954611714073
H         8.34937733639035    4.51761750190543    8.50938327824268
H         9.09599610558923    2.99377888643990    9.01951903692368
H         7.42007545387147    3.02130947042028    8.47483235672183
C        13.83912408217809    9.50512773858212    5.18098162664706
H        13.03592818648876   10.22442312685045    5.23745943911479
C        15.09955306564801    9.83273215177838    5.65396368037367
H        15.28015924479402   10.80743352853131    6.08222862143163
C        16.59554773261439    6.53654365739261    1.61817631001693
H        16.88900550150628    7.11054922845873    2.49412251527396
H        16.93765621472118    7.06295655204719    0.73074670288194
H        17.07963123622512    5.56331066645717    1.65293756383477
C        16.12987339874762    8.91067012359704    5.57541983414189
H        17.11339584165842    9.16413533054433    5.94281059041178
C        11.99240003587262    5.53951865130749    6.08638118911529
H        12.15361243655501    6.61316673632947    6.13998969055006
H        11.49816640784144    5.21381747711594    6.99775718273480
H        11.33956318861995    5.32484444759102    5.24434124018410
H        12.42555501887496    2.96332011731304    0.77406342025123
H         9.78277403935363    4.80558729596805   -1.12488178718303
H        10.78007697870058    4.17200142786588    0.20465248857395
H         9.52240658542948    5.45147863229310    0.49740564996546

