30
CSD_code = QIRKAF | q = 0 | S = 0 | Stoichiometry = C13H12Cl2N2Zn | MND = 4
Zn        2.23128447886063    7.26461681309926    0.65342248230377
Cl        4.28335475236994    6.97029819700150    1.34642735229265
Cl        1.05662810514390    6.61534962896954   -1.10388715779556
N         0.80941644304036    6.96643377258162    2.23842617573040
N         1.59918560500103    9.28298733151360    1.05081661712333
C         0.14002802969097    8.09577189075728    2.49218600310574
C        -0.97659172805113    8.10874856070375    3.33004882512975
H        -1.50137655617054    9.03347507056704    3.51475926336394
C        -1.39498758229179    6.92315317856948    3.90799042046124
H        -2.25674479893758    6.90481837847537    4.55805401441352
C        -0.68765791127581    5.76201153019643    3.63615687478886
H        -0.97828675190352    4.81756835306311    4.06686259435858
C         0.41043015820363    5.83571362459175    2.78930979050150
H         0.99176990859851    4.95734246209145    2.54577182071491
C         0.61583412904931    9.31211239531362    1.86256714514239
H         0.07674509078382   10.22935173550039    2.10476322464944
C         2.13692247985938   10.39880664544629    0.44272566817992
C         2.05678787379625   11.69045915767200    0.97900740310037
H         1.57066706333785   11.85622033079411    1.92896307870793
C         2.65306499960725   12.74595940276290    0.32544176256215
H         2.60170752363068   13.73582734148186    0.75556836198982
C         3.33161706785986   12.56069366245093   -0.87845850396755
C         3.41385644723222   11.27449807947530   -1.40301909278056
H         3.94350592012903   11.10885490414893   -2.32913094815146
C         2.83992639799940   10.20528430195447   -0.74906757184198
H         2.90653003775323    9.20586773236556   -1.15853512508648
C         3.96238880819375   13.72532969590821   -1.57046972473944
H         4.50018929262289   13.40826326702395   -2.45945256067246
H         4.65688192003268   14.23222688852233   -0.90210190326081
H         3.20002279583432   14.44705566699784   -1.86254629032396

