53
CSD_code = QIRLEI | q = 0 | S = 0 | Stoichiometry = C24H22CrO6 | MND = 9
Cr       10.81892608613912    1.85329597413735    1.90961579777164
O        12.77485216444671    3.65665660104178    3.23766902158512
O        13.08692211199872    1.83839901380985   -0.01522670915947
O        12.61770049925636   -0.13331800478633    3.20496991229716
O         8.91170059169963    4.06788699272914    3.52360315526007
O         7.72112906893609    7.76431555590155    0.64866779488516
O         9.05664341105444    6.91007009400707   -0.92979226018558
C        11.97692879649057    2.98827396681978    2.73350842141242
C        12.17484358031368    1.83771733968144    0.69459563548851
C        11.88057956621337    0.60806241183071    2.71203352283884
C         9.17003331988089    3.29910596349702    1.29361196924689
C         8.99966896438611    3.01382032788337    2.67825400049337
C         8.88011479311467    1.67926334766074    3.10190769883692
H         8.68307626788017    1.45649487934798    4.14198582004237
C         8.92016667104018    0.62796879305243    2.16750641473393
H         8.75161784978176   -0.38662428047178    2.50942028911925
C         9.05487019474494    0.89674201001898    0.80666775176450
H         9.00887977415287    0.09793426238969    0.07770672522706
C         9.21803480802000    2.22972440419869    0.38836527236280
H         9.29671942507527    2.44247807552200   -0.67213431783080
C         9.21976234655836    3.87598571426535    4.88713212558534
H         9.34176190279436    4.87671107929704    5.29781925568351
H        10.15439220196783    3.31774165262796    5.00281958607783
H         8.40997351023768    3.36583912556709    5.41900617047626
C         9.27676913904641    4.71040494698773    0.76447167676137
H         9.84722780779696    4.67296148751494   -0.17375962588352
C         9.99513083513298    5.59681771311726    1.66475291966102
C        10.56079130939303    6.40563710149150    2.35206063546826
C        11.19660569482245    7.35886569092154    3.18047069198880
C        12.35433555846616    7.03069302297989    3.88520221809900
H        12.76875244760736    6.03839114505623    3.79270130413831
C        12.95631285053602    7.97845579375149    4.69100319546580
H        13.85333682890252    7.72469669866553    5.23687599727672
C        12.41610234208685    9.25035161098372    4.80014305233169
H        12.89196971080596    9.98736499488950    5.43051894786861
C        11.26497968177975    9.57745027112562    4.10046704326732
H        10.84380523773782   10.56871873392775    4.18625449946485
C        10.65238812667835    8.63904213323216    3.29239590397192
H         9.75195254831793    8.88105035722532    2.74584059650928
C         7.89358845819162    5.35174189221689    0.42421837183176
C         8.19391668746581    6.81287267845574    0.08844461359635
C         9.45825581718709    8.22559403939404   -1.28413910394410
H        10.02668019570987    8.13421479858706   -2.20599173342418
H        10.07990154287364    8.64963826638834   -0.49319466230869
H         8.58387822672719    8.86290380371111   -1.42945958038070
C         6.93320622297468    5.30743861385996    1.60818572959328
H         6.63179721242351    4.28363404691346    1.81958143656193
H         6.04561306175742    5.89389946646052    1.38283772319547
H         7.40752286434890    5.72892725727187    2.48991945397290
C         7.26458875160475    4.68099918133530   -0.79965489113835
H         7.03461940897793    3.63903531387054   -0.58369494006907
H         7.93375231265786    4.72960224200465   -1.65587319837698
H         6.33612121184519    5.18525139761721   -1.06049132955523

