48
CSD_code = QIRMOT | q = 0 | S = 0 | Stoichiometry = C11H28NO4P3W | MND = 6
W         4.01638796894593    4.88659855694952   11.24393523197151
P         2.52876522918851    5.20280668056725   13.16394940588407
P         3.39559065843325    7.02715072783063   10.17785941419084
P         5.91209686297284    4.41784644874612    9.73700594275608
O         4.69510759629012    2.13798610250091   12.55333540751253
O         2.03047081800193    3.39624413504106    9.62120529815058
O         5.42115385599108    5.98186315227717   12.58537243669732
O         6.07383734743420    7.01951337340298   10.73587681627926
N         2.84113619444763    4.01130224040321   10.24694946208411
C         4.49853126791694    3.18780381252287   12.11008415953496
C         6.10816950425522    6.80337365581446   11.94956413399351
C         3.31212253299887    4.64360724184457   14.72155751351024
C         1.06340930521274    4.11324378050330   13.07530151909953
C         1.76707347966504    6.76659461093342   13.78196994804501
C         3.50005739053861    8.66063596625575   11.01440713192002
C         3.96865575626642    7.51057117849108    8.50819874759467
C         1.58662840775422    6.96508669099026    9.82606067549813
C         5.63475075778417    2.76213740482465    8.99188958337365
C         6.58316423389892    5.28910484053540    8.26641704157310
C         7.46826641952016    4.10048349746770   10.65406230697976
H         6.82810062488875    7.40369661953225   12.56873599637080
H         2.64812675324047    4.79029416228935   15.57400903720714
H         3.56443061198501    3.58888650319900   14.62956274469466
H         4.23207254819952    5.20923310731372   14.86483563219636
H         0.49396691627469    4.13639879430191   14.00415865968690
H         1.40931609447104    3.10038938953880   12.87440698413211
H         0.43093985241574    4.42634248698296   12.24597298199878
H         1.12814327735162    6.55526509192655   14.63968289303566
H         2.56268629449906    7.44480435760825   14.08884918769428
H         1.17436485798869    7.24239529172924   13.00309871020196
H         2.87773121112273    9.38641612867581   10.48995824719256
H         4.53548973540826    8.99279699476905   11.00087707914207
H         3.17063119139222    8.57901104802972   12.04817862869312
H         3.41474604542108    8.38535545784155    8.16595112130181
H         5.02945030789979    7.73758562407349    8.55231208875287
H         3.79861777377378    6.68109457582641    7.82392790842060
H         1.23378828182078    7.88099106858232    9.35210486602037
H         1.03241420169989    6.79564319159563   10.74782850965662
H         1.39950584808577    6.12135203828399    9.16249752426007
H         6.48294973237529    2.44861267353349    8.38372106482614
H         5.46550078739062    2.03755554862508    9.78590624279215
H         4.73919295586558    2.80324646408276    8.37312773399850
H         7.43535683848185    4.72985326818112    7.87935428276157
H         6.89737540602358    6.28809209995232    8.55360304735272
H         5.81521560962900    5.35255567987818    7.49873159918889
H         8.17687948031074    3.56790875955699   10.01855115168103
H         7.90502170427973    5.04636663500889   10.96850616525576
H         7.24490947019255    3.50240284112892   11.53744773487210

