45
CSD_code = QIRMIN | q = 0 | S = 0 | Stoichiometry = C10H28NO2P3W | MND = 6
W         4.06166921329561   12.04268077186379    1.53063025209723
P         5.41594977565494   10.13784712635144    0.83336312461350
P         2.14304677538558   11.37084218920871    0.16428939673805
P         3.06442806970992   14.18465431595524    2.13086283719514
N         3.26753652808155   11.15610195475258    2.85401146272165
O         2.74929764067932   10.56715235298197    3.75079461292249
C         5.49965003370754   12.47206950052170    2.80684002302284
O         6.24942676386945   12.63388509495886    3.67140221367886
C         5.59670510343473    9.72098587873146   -0.94907365273115
H         4.63068579300057    9.47758718940900   -1.38695561931441
H         6.28170292818122    8.88388184660508   -1.08599627395944
H         5.98869806168048   10.60509912050586   -1.45008499512203
C         5.10272527741260    8.48841252216118    1.57594514718789
H         5.08264662790403    8.61025682135673    2.65847370641089
H         5.88594243959771    7.78257693366442    1.29994075863656
H         4.13567983260206    8.10740700225482    1.25494502332887
C         7.19005818777368   10.33142199218188    1.25082738036537
H         7.29296048555724   10.38043596420767    2.33401149496150
H         7.53890504830047   11.27173469057686    0.82543187515627
H         7.78392692076013    9.50280110028424    0.86248941971076
C         0.48881314697129   11.83017000306477    0.82723165135040
H         0.41597209823079   11.44308494150097    1.84350620946226
H        -0.30830116941220   11.40249193384410    0.21813567372715
H         0.37955281120085   12.91243376986414    0.85683094035168
C         1.94821780800507   11.87277230828902   -1.59164738663105
H         1.94767324105570   12.96018400416917   -1.64620533122618
H         1.02673492001843   11.47874834063417   -2.02105676842002
H         2.80547449281259   11.50728796813596   -2.15483784503511
C         1.82588223433730    9.56299566688151    0.02522861831297
H         1.76463127973000    9.15444355752284    1.03386175698840
H         2.64269024624839    9.07432990202354   -0.50243644705575
H         0.88992887015911    9.37144040447023   -0.50086646809533
C         2.30736635318161   15.26900080414832    0.85134356234859
H         3.06816616985269   15.45666003501979    0.09468487865482
H         1.97865348868583   16.21302512341577    1.28673412074264
H         1.46298213563757   14.77386351972021    0.37597490005945
C         1.80446548422690   14.23876861514029    3.46431439029751
H         2.21464344608034   13.71700404738264    4.32842995500707
H         0.90016003028012   13.72224246820590    3.14958050852729
H         1.56592559329308   15.26729640522592    3.73453977704602
C         4.28354258033662   15.37423607305509    2.80736510621748
H         4.69548402991610   14.96928274231368    3.73064348233523
H         3.82691045819553   16.34532435206260    3.00358454518631
H         5.09097414805138   15.48123596928990    2.08392191311947
H         4.77941459632903   12.87334267604326    0.24389006914128

