49
CSD_code = QIRMEJ | q = 0 | S = 0 | Stoichiometry = C10H31BNO2P3W | MND = 6
W         4.78031726874625    9.57386475988882   16.14491948587432
N         5.88763175891331    8.50687016166141   15.25807809892666
O         6.62848800818747    7.79014458604833   14.66640954960356
C         3.80320006915737    9.88897555561595   14.46032485954282
O         3.32981314210610    9.98098581263214   13.41410032020460
P         6.00977426784819   11.64956077650629   15.68765178805852
P         6.12258979242364    9.04583428284404   18.13600665165599
P         3.11061877464878    7.84809679540448   16.65153946339181
C         5.12361994355336   12.73823250764058   14.51480833753348
H         4.12440042640606   12.91520779498519   14.91190170875630
H         5.03671571011945   12.23571103782638   13.55226499987671
H         5.64494832237643   13.68791496800260   14.38712028380905
C         6.27600911627826   12.84065935647145   17.05581240644279
H         6.93090452449065   12.42000361257708   17.81657672275300
H         5.30133073789798   13.03483118634526   17.50293566970619
H         6.70518509239372   13.76966993019272   16.67947637169392
C         7.66065639454245   11.58027886341414   14.88817249444828
H         8.38177071870791   11.10487368097802   15.54928546836780
H         8.00444910333264   12.58180009725576   14.62984494656237
H         7.57199363173903   10.97795197886479   13.98476734639748
C         5.72776076264435    9.68696586681414   19.80589170523124
H         5.75243426629108   10.77515657279958   19.77814540991953
H         6.43476716118637    9.31761388980592   20.54942484798845
H         4.71615919007178    9.38451546862847   20.07116069364201
C         7.91457647261083    9.44646942354042   18.02921288138816
H         8.31109600355111    8.98513522018285   17.12476305963572
H         8.44946957096146    9.06033295446089   18.89762983310800
H         8.06008003044226   10.52304736826927   17.96744932484967
C         6.31217016183474    7.24984505716282   18.48379098655461
H         6.68841777174590    6.76949736219994   17.58054713626962
H         5.35120788836954    6.80834804193120   18.73942713537832
H         7.01411314102906    7.08457805314247   19.30181511907788
C         2.46247536727498    7.68310970445104   18.36030303703595
H         2.11774235955102    8.67042215831586   18.66717890441015
H         3.24206434742602    7.35549781201505   19.04533445968326
H         1.63328599994412    6.97567565969864   18.38945371867360
C         3.44451463175173    6.10585460065744   16.18228859643808
H         3.70855784197549    6.08787875233793   15.12552518810822
H         2.56508309812846    5.48486026844132   16.35257669301588
H         4.28509010788994    5.71613384626303   16.75246376733645
C         1.53540482391202    8.13474089911469   15.76728212499349
H         1.19473564858270    9.14129854051182   16.00895731255083
H         0.77879079060343    7.40602177146773   16.06145940659520
H         1.70857632489505    8.06964240086701   14.69387542454036
B         2.84457871508675   11.48973377999243   17.72330236042683
H         1.79927592215821   10.92033518138912   17.75128560808974
H         3.33377916557940   11.64512839243470   18.79786240266941
H         3.72107774038239   10.60650358852719   17.05725517042800
H         2.83119789025089   12.47358961942417   17.05344071835546

