55
CSD_code = QIRTIU | q = 0 | S = 0 | Stoichiometry = C23H27Cl2IrS2 | MND = 8
Ir        3.04530785707343    6.63336118207364    5.81293400059338
Cl        0.87438723319520    6.22639699079314    5.06455980232573
Cl        2.14074044036058    7.51968051762606    7.78487584307733
S         2.87897269148885    4.33544638242595    6.75131316964503
S         0.96861992266950    2.71282554672319    8.41338826714686
C         1.37995393733612    4.35708883050452    7.80964576770271
H         0.57316101333289    4.77332596406952    7.20841837799197
H         1.57311648822134    4.98498191015582    8.67617486924575
C         5.24591454448537    6.59328555849192    5.41878823000704
C         4.52412535764963    6.27996466259754    4.20090049777207
C         3.76515130689814    7.41735630930130    3.83115254916190
C         3.90787015189751    8.39915540978983    4.87684783118490
C         4.88689000782940    7.89871438674149    5.81993322296300
C         3.40017260043789    9.80393888903429    4.84440469084554
H         4.08864097090205   10.43187001605893    4.27501376336235
H         2.41884159970657    9.85389374257749    4.37837199409791
H         3.32208393144637   10.20359510344632    5.85247326245863
C         2.99045165268129    7.56769593032729    2.56502142141960
H         3.63536668674705    7.35867468469286    1.71160289469884
H         2.15409721023343    6.86933155374507    2.53911705007646
H         2.59407560058398    8.57468169848751    2.47097892059100
C         4.71138417158192    5.05781312345239    3.36519668707542
H         5.56402606574690    5.18874058140537    2.69628660238181
H         4.89610562519214    4.18324756384075    3.98523967523333
H         3.82612042838305    4.87147426128757    2.76237853265843
C         6.32074683809208    5.74620595317724    6.01430475710784
H         7.27891585482489    6.00749929078910    5.56146928370626
H         6.39819826142697    5.89721573977538    7.08879908825083
H         6.13737834708000    4.69000037563187    5.83077654858195
C         5.44576190030244    8.68444834392047    6.95873907953615
H         5.96663842814223    9.56500188504807    6.58216583073404
H         4.64550598575071    9.01820630728827    7.61824017278196
H         6.14183649780193    8.08623031432150    7.54017410503534
C         4.13555458509484    4.16781676928688    8.01655397765355
C         4.89283838594438    3.00641253112274    8.01747444344855
H         4.70306688874646    2.24361715560352    7.27773854240212
C         5.87741494585229    2.83850163037826    8.97558375490068
H         6.46858150783257    1.93519996178180    8.98351136363823
C         6.09776363628358    3.82457909625294    9.92315940575633
H         6.86486036592457    3.69107651872038   10.67128053385647
C         5.33486904525863    4.98155001921348    9.91331415508410
H         5.50582942492493    5.75104946157121   10.65108071456042
C         4.35019523512826    5.16237110241019    8.95760797499658
H         3.76131438008946    6.06853624419003    8.93417014784473
C         0.35990231024194    1.86980739212756    6.97290835927221
C         0.29501816345883    2.43281767553399    5.70788324705375
H         0.60848979135236    3.44586923175788    5.51242883538601
C        -0.19579400233158    1.67626592882441    4.65611602363199
H        -0.24818302241772    2.12218075270220    3.67427723793966
C        -0.61734040117169    0.37381258752857    4.85363302608644
H        -0.99953907681009   -0.20525753816409    4.02640555121386
C        -0.54833351843514   -0.18340112624881    6.12107883065679
H        -0.87611448486866   -1.19878446860597    6.28785521091979
C        -0.06066534903483    0.55913528954378    7.17765065695550
H        -0.00258842051328    0.13749477486372    8.16990121722586

