72
CSD_code = QIRWEW | q = 0 | S = 0 | Stoichiometry = C36H30ClN3OZn | MND = 4
Zn        6.81066959433760    1.29813989343268   10.17661285422859
Cl        8.25049138414432    2.18007034266553   11.54110702569062
O         5.00696029536266    1.55970458303083   11.26882818675634
N         6.44581886413431    2.03869361642485    8.42277993272139
N         7.14629216697411   -0.03035202975714    7.39594506740985
N         6.90729509332489   -0.58995862715205    9.73288864427443
C         6.00959058674047    3.19772300675308    7.91209146166840
C         6.06697197789063    3.17090600112215    6.50010091704219
H         5.78041138791343    3.97852347973590    5.85486011258021
C         6.55238932965561    1.93645685377039    6.12577394802454
C         6.76448036394297    1.21769480910521    7.35855582281403
C         7.21486184889853   -0.84973271220736    8.41104618814835
C         7.45935614146858   -2.26199987379558    8.24984975000917
C         7.22048516802339   -2.81952677894325    9.48827831400506
H         7.32000912677440   -3.85019703654986    9.76879362319207
C         6.89759712378039   -1.76660718746958   10.37303750278809
C         5.49406031595759    4.28714594018812    8.72315139039260
C         4.44070912328982    5.06664195019465    8.23720056396084
H         4.02260509932318    4.85035564992964    7.26530193864585
C         3.91315660199536    6.08808078549525    9.00235456788062
H         3.09437073149874    6.67878523110922    8.61778882656255
C         4.43000218116532    6.35628405463480   10.26029178779920
H         4.01680732998794    7.15696349918295   10.85602884233428
C         5.48332642854169    5.59835108462440   10.74520263869049
H         5.90132085205814    5.81028941046906   11.71830721570782
C         6.01330285667571    4.57237723597057    9.98579269338989
H         6.85629511510391    4.01319438043359   10.35890036583889
C         6.78667260320755    1.43634494266498    4.78561341496697
C         7.11705275849467    2.32154939206748    3.75614926491141
H         7.21638376615978    3.37492478548407    3.97267524517791
C         7.34826798794877    1.85666199241711    2.47673292403364
H         7.61033744628644    2.55154967389588    1.69193975819656
C         7.25030694698746    0.50241627903034    2.19792353328678
H         7.43140209935298    0.14143960879498    1.19614145070944
C         6.91618107490290   -0.38341239080935    3.20921826171044
H         6.83403087444768   -1.44019244849945    2.99925664790612
C         6.68251468468350    0.07551917165052    4.49105121899128
H         6.41514864983578   -0.61314242579112    5.27573814933886
C         7.84447197154190   -2.92017140250674    7.01886861568951
C         8.56164541413218   -2.23500244564352    6.03531975252493
H         8.83677138518861   -1.20669777179839    6.20486754279242
C         8.91930334185387   -2.86857606100089    4.86105622851489
H         9.47228817975147   -2.32523565700120    4.10873260316968
C         8.57450034975309   -4.19327655293822    4.64729421894042
H         8.85539872233275   -4.68696528135392    3.72840898912029
C         7.86919108935286   -4.88542547279952    5.61957162545092
H         7.59788427527766   -5.91860247269138    5.45649121771151
C         7.50852866019641   -4.25790623943134    6.79525828097765
H         6.94399794821538   -4.79643029447223    7.54200551894609
C         6.54528525016580   -1.91373619674370   11.77562449982720
C         5.80472112215165   -3.02643310994721   12.18350752938566
H         5.49841484880253   -3.75883978830451   11.45114086018171
C         5.43980589693398   -3.17891868810013   13.50697250472993
H         4.85953272601754   -4.03888389509955   13.80846567188727
C         5.81864250548555   -2.23395519567199   14.44798265175831
H         5.53688375472565   -2.35863321754884   15.48323230909370
C         6.56735860179976   -1.13603597514194   14.05559525649097
H         6.88482933167065   -0.40742574564776   14.78742718004562
C         6.92587321875379   -0.97120385394655   12.73056498220696
H         7.53537596170914   -0.12999682284853   12.44138020315653
C         3.77937715900460    0.89775174805400   11.02685140255544
H         3.93819622453183    0.15905656947481   10.24199136851995
H         3.02970965181191    1.63019976778084   10.69459808837542
C         3.39083351091892    0.29245766753926   12.37711654263537
H         3.85606261672952   -0.68559451547209   12.49364434705732
H         2.31371200970187    0.18220069790097   12.47598852023952
C         3.98080552164232    1.29065792908212   13.38667190570105
H         3.20397906947792    1.86557799228173   13.88702950338876
H         4.56822401819955    0.77322717846607   14.14151006164718
C         4.86613680644741    2.20826132978658   12.52661528048813
H         4.38670058310955    3.18399415592869   12.37112261839065
H         5.86612229139997    2.36039547630942   12.93068206666932

