48
CSD_code = QIRWIZ | q = 1 | S = 0 | Stoichiometry = C12H30ClCrN4(1+) | MND = 5
C         4.24593164342292    8.63180148846668    0.69160332299305
C         4.42223304377720   10.13009603234097    0.90883333431548
C         2.14660096179783   10.90525422521694    0.95185850246181
H         1.32506608408498   11.17273137984671    1.61546848449603
H         1.87110764523183   10.03467348379703    0.36109180756325
H         2.32335011151039   11.74025846330798    0.26331223773529
C         3.72349633174256   11.88684553891712    2.39383860639957
H         3.90353799297263   12.66775656308896    1.64666965791029
H         4.62980968809922   11.76027767335389    2.98074490084386
H         2.92164613638936   12.21235176303973    3.05437225128671
Cl        1.44056679851217   10.52494736145064    4.54217827738890
Cr        2.73841718890964    9.22705664615096    3.24431531979921
H         5.12438793089709    8.21867363168908    0.17946288673717
H         3.38347301133842    8.46403141080431    0.04822552598183
H         5.37166923422657   10.32598689296269    1.41101985576489
H         4.45068852894360   10.64633216947455   -0.05917966667958
N         4.01006957785932    7.95543349654491    1.97266801095174
N         3.33600175382698   10.62505148949877    1.75730315361031
C         5.03089404404757    9.81889753213771    4.92248658717955
H         4.36728778884355   10.64043432220392    5.18996723794001
H         5.62165712001807   10.09438697619525    4.05190196130473
H         5.71944435475573    9.64214759936032    5.75748719255691
C         3.58891759965925    8.24200534029985    5.90409258809837
H         4.33609251536663    8.06196495358735    6.68499765867247
H         3.00200929080231    7.33569282243842    5.77752917735681
H         2.92838600280261    9.04385575745136    6.22960104825144
N         4.22544583240354    8.62949736872976    4.64229376888844
C         5.29113380411791    7.71956614603109    2.64903459398719
C         5.07390857898441    7.54326492835303    4.14733054714647
H         5.80326953606782    6.84110727658859    2.23590607509049
H         5.93451554123230    8.58202103530435    2.48126261112473
H         4.57171888085626    6.59383044930684    4.34322128693533
H         6.04192239312592    7.51480439999706    4.66356482922902
C         1.06025953272202    6.93459604212484    3.83614219523599
H         0.79277601859121    7.59819900488543    4.65768037808138
H         1.93084817636188    6.34383797149010    4.11163005341074
H         0.22526290789471    6.24604266681407    3.65938837939074
C         0.07864735575574    8.37658178223650    2.25925753937497
H        -0.70225760277936    7.62940718829462    2.07921929888620
H         0.20520913026940    8.96349174659851    1.35294560975104
H        -0.24685587354234    9.03711139867140    3.06111168145175
N         1.34044700772801    7.74004920136603    2.64674343843150
C         3.33370462255195    6.67436982819268    1.73680050048099
C         1.83540687696502    6.89159203737658    1.56050525598597
H         3.74683218144691    6.16223585659901    0.85834013913211
H         3.50147948080352    6.03098524692299    2.59925336640424
H         1.63951106480157    7.39378434478945    0.61107314057944
H         1.31917217380427    5.92357906570223    1.53204539007989

