46
CSD_code = QIRWOF | q = 1 | S = 0 | Stoichiometry = C14H26ClCrN4(1+) | MND = 5
C         0.95249811328869   12.99888598240419   26.32765557849795
H        -0.11908935088372   12.87000932905691   26.38624631798847
C         1.77035947968602   12.58380907266144   27.35472076989081
H         1.33778520407985   12.10807302467824   28.21934651344899
C         3.14311770900041   12.79123815315972   27.26621233963578
H         3.80820744745377   12.47617184565824   28.05181248810836
C         3.62757241606974   13.43475478153354   26.13428426713673
H         4.68028344067757   13.63877053714282   26.01851883068954
C         2.74381012158401   13.82667671958528   25.15053252451273
C         3.13919218457194   14.55483500874432   23.90237585133234
H         3.06629049101634   15.62932067624813   24.08781455692250
H         4.17192771997636   14.33090540325924   23.60746470822596
C         2.17886118153659   15.16012415725546   21.77185245287025
H         3.20022125420442   15.44387095628489   21.48693158441315
H         1.70122112996547   14.71147919861004   20.90035509413095
C         1.38697939822598   16.38908400838869   22.20541602855485
H         1.22180649156436   17.05560399789966   21.35095149075142
H         1.95191676231012   16.94978062661989   22.95269562798032
C        -0.93200446748308   15.90642958040804   21.78058123019104
H        -1.84035992453477   15.48162200585384   22.20753644764115
H        -0.61189240289453   15.29711430256250   20.93625235657048
H        -1.15747560964798   16.91349781670434   21.41067499647597
C        -0.28897406594919   16.88380636302326   23.85570071784364
H        -0.31416684832411   17.91273884555647   23.47967579256244
H         0.40860981400421   16.82543967410479   24.69363517354884
H        -1.28352173213678   16.62254483623105   24.21508322345028
C         2.50760280579505   12.84281930238347   22.36673436628063
H         3.31846324906168   12.88027056523516   21.62861204431064
H         2.85268800705353   12.24958186686875   23.21579654051221
C         1.27107570500148   12.19185771095889   21.76423455479647
H         1.48752132335317   11.15087615691897   21.49711969182243
H         0.98511326108782   12.71421709682696   20.84928472329664
C        -1.11312464032068   12.22001212132608   22.00183613703052
H        -1.19551383491366   13.05092184964665   21.30436570082240
H        -1.93181285788727   12.28506670383901   22.71535383520324
H        -1.20589051898741   11.28311651401638   21.44273492134879
C         0.19888020522999   11.15775098379273   23.65444358685282
H         0.05529372701727   10.20727981069572   23.12866394550804
H        -0.60194612490284   11.27215208948335   24.38395557690441
H         1.15168537956606   11.12111402258966   24.18065390798391
Cl       -1.84600187799699   14.10205720136933   24.62880492472333
Cr        0.21222091153866   14.09631722399259   23.81658422074900
N         1.41225454681887   13.60376550447060   25.21311055920161
N         2.17532957046977   14.18379251972311   22.86110840129929
N         0.11857945488049   15.94601634056777   22.80146680966768
N         0.16150575077753   12.28462751165953   22.71870858831098

