40
CSD_code = QIRYOG | q = 0 | S = 0 | Stoichiometry = C16H11AuF9N3 | MND = 2
Au        2.18947553102683    6.77477105970560    2.56517074573740
C         2.87859778521321    8.34370731066401    3.67006043777816
C         4.22630686060290    8.49902998822046    4.02853282172497
C         4.71618195196092    9.58011814232982    4.74464749283636
H         5.76436192042200    9.65044743280211    4.99377278863976
C         3.84128958643861   10.58277780155991    5.13319393782342
C         2.49592823589629   10.49083930158723    4.81515132722730
H         1.81301759993893   11.26983372478207    5.11907508897183
C         2.04853551750401    9.39168267041559    4.09764202103543
C         5.19453381057672    7.41417165185149    3.64262713799885
F         5.18131270369321    7.13633332744183    2.32247879411166
F         6.46787260389175    7.69609986877727    3.94207561601276
F         4.91953319107753    6.24874715832609    4.26476476032727
C         4.35195584370178   11.74531107018076    5.93484164497168
F         5.59856464343157   12.10234704268395    5.59158102270025
F         4.39289021160909   11.46910251905983    7.25368922716151
F         3.59110271226549   12.84159752200618    5.80746772409436
C         0.58526341523924    9.32338272536951    3.75980336854308
F        -0.01310525905612    8.21142294543090    4.24084419734246
F        -0.12969445785954   10.35107992146241    4.23031653892220
F         0.35570017138439    9.29730870308314    2.42798238252327
C         1.46409120882143    5.32889488592043    1.29241208842386
N         0.21802637052611    5.36151942966488    0.86247567201603
H        -0.06400982686691    4.77203428049191    0.07973662791412
C        -0.82648469590148    6.21071590035062    1.37477821698641
H        -0.54013951185944    6.58629897056084    2.35338366755096
H        -1.75116932795250    5.64065572849876    1.46262895781125
H        -0.99542951460287    7.06138269522303    0.71084487800608
N         2.25472314302265    4.47948577223739    0.63113601832834
H         1.89593588423141    4.01933957038825   -0.20660583163964
C         3.58928054283591    4.16122679915177    0.91995784126927
C         4.44178718294134    3.82018361638046   -0.12726687411629
H         4.09353198970453    3.82785254153718   -1.14968408213167
C         5.75028533483531    3.48259117823174    0.17361617330774
H         6.44758837837764    3.21889926751500   -0.61011155000297
N         6.23065623336223    3.45405634145895    1.40350353611793
C         5.41431262842144    3.76132713548233    2.39449404830369
H         5.83928292039369    3.71707324591310    3.38732907645835
C         4.08462726435680    4.11314017901717    2.21731546579491
H         3.45497921638863    4.33231057422960    3.06263699311014

