40
CSD_code = QIRYEW | q = 0 | S = 0 | Stoichiometry = C16H15AuF5N3 | MND = 2
Au        0.48750204117264    2.24899741805925    2.29270503131894
C         1.22961055774018    4.06085190718942    2.94496501813245
N         0.56758970002583    5.18864835609518    2.74502752934976
C        -0.69044639882641    5.18626599971232    2.01629178879533
H        -1.32988560214148    5.96768525083975    2.43288031171165
H        -1.17932200095106    4.22192622923617    2.16399831670545
C        -0.47522096536665    5.41661960228552    0.52430952482170
H         0.01717509175808    6.36836325382161    0.33624102183892
H        -1.43317792091682    5.41509362201507    0.01321604282267
H         0.13785577321167    4.61859741962275    0.11276635372670
C         1.00835055293067    6.50763459399634    3.18317677278838
H         0.57381892906026    7.24452699524115    2.50512060225060
H         2.09577053411405    6.59161964679742    3.08769016595697
C         0.56272882625350    6.81306836525310    4.61309749220195
H        -0.52202016855198    6.78752794630504    4.68255795301465
H         0.90322862979119    7.80323796882667    4.90458158748893
H         0.95850174785355    6.08693507556880    5.31980803915298
N         2.35677782221067    4.14149332340601    3.66517296231303
H         2.58894458113349    5.00502119294700    4.14654186705340
C         3.23947827362147    3.10147281372825    3.98317588191462
C         3.54345631122574    2.05485040278406    3.11996921291959
H         3.10955175059188    1.99361446678546    2.13725419265845
C         4.43705733093871    1.08653328397895    3.55380180086707
H         4.68329323044116    0.24953717917661    2.91622563038604
N         5.03912883909959    1.11519227157215    4.72848270003572
C         4.77515231501069    2.12924301236256    5.53334449275820
H         5.29546416099558    2.12608716304523    6.48174785119477
C         3.89254227321790    3.14612298275180    5.21471373108184
H         3.70656413695488    3.95206043717635    5.91022665718848
C        -0.29342918995857    0.47962083840306    1.68172502542078
C         0.47289948015142   -0.65948881930530    1.47368823968300
F         1.80899007423337   -0.58651804117504    1.67467385108236
C        -0.04638843315889   -1.88033974051815    1.06185508824685
F         0.75230760711892   -2.94457806457086    0.87808519764536
C        -1.41218278169288   -1.99472252210800    0.83735127347034
F        -1.93988004122820   -3.16231576887940    0.44007955000684
C        -2.22473799644236   -0.88444532137171    1.02705001198749
F        -3.54771192721559   -0.97824826270544    0.81082388273411
C        -1.65030715068870    0.31066968443399    1.43933660050919
F        -2.47312999371042    1.37313783721419    1.61134074676919

