139
CSD_code = QIRYEV | q = 0 | S = 0 | Stoichiometry = C60H63CoN12O3 | MND = 6
Co        3.22363599006034    8.55137976429866    4.25392609571861
N         5.18073344318975   10.37826759653422    7.31359374544860
C         5.99821272829799   11.47252480053032    7.01556830581770
C         7.05275349174737   11.78392085703595    7.86806248112885
H         7.21750598048929   11.16848758937999    8.73768215560587
C         7.85579391232546   12.87378857975881    7.59218783065822
H         8.67501202202302   13.11454691263363    8.25312262609527
C         7.61738134727178   13.65387678892290    6.47188107825146
H         8.25072268880873   14.50147609157691    6.25668862530635
C         6.55701983803962   13.34823792907285    5.63501104280237
H         6.35562736216636   13.96298237681554    4.76975021835089
C         5.73852142651921   12.26642984303328    5.90412033343611
H         4.89394786454424   12.04729049865659    5.27240852802495
N         5.05510048250071    9.95639636336954    8.61224347935194
C         4.16629534103181    9.00723922219112    8.64428761461604
C         3.76778110804970    8.31582876911810    9.89347360062841
H         4.24643720592170    8.79123043867020   10.74432809231722
H         4.06641437082381    7.26964837435086    9.84804413984607
H         2.68613815724691    8.34935583169267   10.00751213611173
C         3.65811081664626    8.75823590786326    7.32969839469760
N         2.65396931763275    7.97792140667641    6.98069443793920
N         2.19823984540632    7.97796627746571    5.79646480238923
C         1.15899866316433    7.06772829814489    5.54346634528957
C        -0.00400155017427    7.49076898161158    4.90318887923891
H        -0.14582677395544    8.54108031147600    4.69081988471798
C        -0.96003924240372    6.57084983627759    4.53023245434624
H        -1.84473091334727    6.93040270814216    4.02634642164653
C        -0.79932376470308    5.20671039849650    4.77325624517629
C         0.33948733047367    4.80841829029007    5.46380072853310
H         0.50799221795956    3.76940872259180    5.69513374952111
C         1.30180489648760    5.72035002704131    5.85569745147983
H         2.19624354574317    5.38976086844928    6.36262750085156
C        -1.86195519255510    4.23183615068144    4.29427645821445
C        -3.17543879152761    4.53691555917487    5.02916336278383
H        -3.52042839321347    5.54509640201101    4.81667674429892
H        -3.03602289301362    4.44343860226322    6.10424551543460
H        -3.94937810126678    3.83821874591134    4.71886754571562
C        -1.48343975193393    2.77289953291401    4.56183353098861
H        -0.55001524012262    2.51910710903749    4.06448432810183
H        -2.26159390374768    2.12042756704311    4.17107814510480
H        -1.38822481500189    2.57894902960433    5.62762683688001
C        -2.06147785487650    4.39489954839363    2.78081509369142
H        -2.35734748324454    5.40683096079939    2.51960919945161
H        -2.83661708098154    3.71527564626569    2.43303045777587
H        -1.13922175222082    4.16368749416856    2.25286992669827
C         4.38826537516250    9.65626844535976    6.47665694438930
O         4.34645430280602    9.76125854721418    5.22117617979158
N         1.00587410459750    6.77959489708718    1.32722348789542
C         1.14858805846314    5.39834232176206    1.16837240025494
C         0.69384795113755    4.80461245472326   -0.00595463361147
H         0.23580786444688    5.42685819376092   -0.75761137828782
C         0.83037896585720    3.44094504411277   -0.18057167024827
H         0.47596794808676    2.98284545344358   -1.09199721742967
C         1.42040368640768    2.66334161220185    0.80327551607095
H         1.52882353606913    1.59881934512186    0.66028728416219
C         1.86692640849353    3.25687344709042    1.97207749048019
H         2.32549999100982    2.65984600053699    2.74610706051646
C         1.73056218407263    4.61902452103088    2.16381494700521
H         2.06506908189574    5.07268035060056    3.08125063770358
N         0.24941785452795    7.51277489206200    0.44912397159879
C         0.27863073087495    8.75787010724766    0.82710738853412
C        -0.42480582705446    9.84090746090273    0.10025155810155
H        -0.96887505939688    9.42522364526825   -0.74239304903677
H         0.29702222912842   10.57533518774511   -0.25336781495570
H        -1.11460987549739   10.34920962877533    0.77128517873415
C         1.09275412421226    8.90427321808435    1.99485460343772
N         1.31791807894787    9.97942847872912    2.72257159913937
N         2.06653275764370    9.96488604589548    3.75413511081296
C         2.13791659407679   11.21483555553100    4.40097609420278
C         1.99223457868239   11.32028551832750    5.78162945631792
H         1.75593541749671   10.44409620600478    6.36530186635344
C         2.12596460587140   12.54390498159420    6.40301961618998
H         2.01258157990198   12.58537086177947    7.47549839004332
C         2.39989033903973   13.70609969344781    5.68330273061409
C         2.46932741144647   13.59646529084242    4.29888757635695
H         2.64042561718011   14.46760323886882    3.68790330423500
C         2.32757433047374   12.37799734564120    3.66218464285681
H         2.38133532851810   12.30848381898754    2.58711126618237
C         2.56748585842632   15.02342798664295    6.42135634529141
C         2.99237608079673   16.16497102648061    5.49372752628825
H         2.22899751404620   16.37317066314098    4.74773686631749
H         3.92874340111147   15.92889569954437    4.99357687186651
H         3.14199513825609   17.07007343507565    6.07850518104695
C         3.64055074498657   14.87293315633360    7.50896727201860
H         3.36643907578368   14.12133870566283    8.24324658038434
H         3.77594095468276   15.81853219319631    8.02952325041508
H         4.59087885195733   14.58200408985649    7.06692523850900
C         1.22367479827474   15.39418833141088    7.06559184274496
H         0.90804421573073   14.63616948745662    7.77714373663438
H         0.45291321770432   15.48841453843889    6.30332903434584
H         1.30887504048961   16.34298139365944    7.59072513152125
C         1.56062762640473    7.57788319875646    2.27379169552101
O         2.31887184065708    7.21804960971845    3.21064781708937
N         5.00291303145719    4.94663926421131    3.96267227482940
C         4.90520134206132    4.10616439583940    5.07296153014623
C         4.91282132066009    2.72780795489794    4.87367027385928
H         5.01828284835687    2.35274984415962    3.86838715483377
C         4.79232140093952    1.87721595976652    5.95497886931221
H         4.79914056933785    0.80877378994692    5.79671318500327
C         4.65963857606277    2.38750033041605    7.23661718079246
H         4.56163379280925    1.71983021746450    8.07952801873945
C         4.65941747143803    3.75824643911064    7.43223018495296
H         4.56327744715895    4.16165739054830    8.42979472886656
C         4.78722992979469    4.62270598724206    6.35999640024635
H         4.79614583549467    5.68946859844218    6.51584894518457
N         5.31920929884030    4.42472057465614    2.73350263716649
C         5.28232005574155    5.38863839960934    1.86154338178363
C         5.53986430774111    5.17922628108427    0.41706170339882
H         6.00410606794018    4.20968306433039    0.26341819500465
H         6.18180488131988    5.97013294666200    0.03567010676079
H         4.59794204600378    5.21109340044759   -0.13070055100103
C         4.90209834204386    6.61513536674500    2.49164078393805
N         4.79528125752694    7.81478248883945    1.96076789041853
N         4.30835954598000    8.79902214054260    2.60380632267160
C         4.34623175352375   10.01577996903173    1.89862699809209
C         3.77807087183799   10.12933478937997    0.63234328054388
H         3.32111505381242    9.26353062644088    0.17508247830757
C         3.78294107336712   11.34635232168971   -0.01685632781501
H         3.31525774520104   11.40805167080854   -0.98813105614741
C         4.37391011047619   12.47587847320418    0.54768398673741
C         4.98772601652190   12.32826093774413    1.78646656740815
H         5.48823720408559   13.15896439365301    2.25527049900826
C         4.97176269575503   11.12108121951311    2.45916865094329
H         5.45294002162078   11.01731024032429    3.41723992348368
C         4.31703989343858   13.80155949685656   -0.19441096383389
C         5.01800214359182   13.65187724587901   -1.55152538957924
H         4.53290996480955   12.90033116914268   -2.16794716106882
H         6.05512078746946   13.35649928156282   -1.40757207679075
H         4.99929733719647   14.59735444169126   -2.08948589583787
C         4.99933341659498   14.93612422927326    0.57464877944666
H         6.05575041421181   14.72689316570893    0.72536423085500
H         4.52504316622962   15.09462446922783    1.54049684771659
H         4.91857218047055   15.85974232772903    0.00494416833659
C         2.84551368651501   14.18677362583990   -0.40715770857127
H         2.32472896016092   13.44674558996338   -1.00840246682729
H         2.77914251451632   15.14566231392888   -0.91683973424672
H         2.33457346929465   14.26918328101684    0.55021848142761
C         4.70929808310989    6.27182242588222    3.87570852111305
O         4.37591953728901    7.02997912390271    4.81857465146264

