110
CSD_code = QIRZAS | q = 0 | S = 0 | Stoichiometry = C54H45ClN2O5P2Ru | MND = 6
Ru       -3.94801406889556   -5.86632571312929   15.57129401116772
P        -3.56127634349776   -6.40353190537220   13.32046483718811
P        -3.97478922675969   -5.20629763583037   17.80654198816838
N         0.16724467699804   -4.37841085177584   15.36488819992568
H        -0.70436920689388   -4.91920821473596   15.36136012679187
N        -2.35585945477532   -6.88498122435302   15.93965923714518
O        -2.45575932288426   -4.39446296919961   15.32784537445474
O        -6.00093128920671   -8.01497305544574   15.91854755702366
O        -1.75230655668117   -6.68837296290727   17.00284320827679
O        -1.72826327650455   -7.34579512803743   14.96460292764803
O        -5.55472558317936   -1.70557107392405   12.78759263591313
H        -6.27577853122756   -1.26769616043581   12.32461876468967
C        -2.48516540979658   -3.13835070002472   15.16582432216623
C        -3.69075946080822   -2.38784036623407   14.90579835236153
Cl        5.11713540847946   -7.56556412513557   15.27420198962861
C        -3.59477801476520   -1.01720298652164   14.83349082540054
H        -4.48023217136414   -0.42947467234611   14.65588804114775
C        -2.38660292031416   -0.30295308724675   14.96906747112835
C        -1.22866841390316   -0.99711785997232   15.13255948563469
H        -0.27917920759974   -0.48465549631536   15.19890848037502
C        -1.22896320513772   -2.41546248493790   15.21121366374369
C        -2.41688952151421    1.19365032497542   14.89551175960881
H        -2.80165522485251    1.51689896267820   13.92882673099780
H        -1.42188598812538    1.61018727556427   15.03103536042977
H        -3.07268623586527    1.59888337848175   15.66549627480419
C        -0.00631216669742   -3.06627681735586   15.30487371592601
H         0.88412233326883   -2.44962691170573   15.30178656737080
C        -4.96900893787876   -3.06800323237649   14.67257944073048
C        -5.24349074510277   -4.35275240812240   14.95461976654832
H        -6.27176011250924   -4.62734255080220   14.68588225701117
C        -5.19572179891904   -7.19382592941088   15.79358484968679
C        -6.04660083250092   -2.21996905791999   14.01454267378107
H        -6.92761343364296   -2.84921571625287   13.83016001722289
H        -6.36138328466811   -1.39685266680667   14.67871731595455
C         1.35792309665368   -5.08682685348785   15.35960589840983
C         1.28595165061214   -6.47977162143241   15.27670952113998
H         0.32060493426168   -6.96380403823649   15.22203644324789
C         2.43447172442531   -7.24225319880556   15.25137508954843
H         2.37189827034063   -8.31670553405556   15.18454549459955
C         3.67251683193367   -6.61888018439720   15.31156446739814
C         3.76200945268127   -5.23841515854400   15.40194986456880
H         4.72918579912599   -4.76347186179910   15.45306242841731
C         2.61112037617430   -4.47562903934819   15.42672444830725
H         2.70299662091708   -3.40378561336631   15.50319481663835
C        -3.36247250506933   -8.12089179353720   12.74267094838961
C        -3.04520097851806   -8.35228786339300   11.40797130045591
H        -2.87550606111103   -7.51530830565365   10.74412823809189
C        -2.94585979266569   -9.64685372440691   10.93467888166501
H        -2.69382886636800   -9.82311714645395    9.89884226549223
C        -3.17208483958047  -10.71710387621835   11.78573861823425
H        -3.09526774163699  -11.72814229435184   11.41322105739301
C        -3.49666394724033  -10.48949570590082   13.11234235599800
H        -3.67379366774203  -11.32273516098121   13.77649783302606
C        -3.59370146874886   -9.19473022330376   13.59027789343643
H        -3.83480125602043   -9.01246632370171   14.62905722979962
C        -4.91131031772431   -5.95664019501952   12.16502153522038
C        -4.74274251296510   -5.33063440283537   10.93678405871371
H        -3.75948975582177   -5.02849158547793   10.60517095929927
C        -5.83858904025767   -5.08139393505586   10.12844791806382
H        -5.69876061031030   -4.58542180570586    9.17858879612968
C        -7.10666114317154   -5.46416716787137   10.52919883332221
H        -7.95871901284164   -5.26199750086950    9.89645131907293
C        -7.27913340204178   -6.11188237573280   11.74208349312318
H        -8.26559472290332   -6.42213007659821   12.05548749936610
C        -6.18720361552052   -6.35706190818308   12.55176355824446
H        -6.31119569820980   -6.86424830966870   13.50092316390283
C        -2.12951903218085   -5.51796209269263   12.64087259472792
C        -0.89323003135552   -6.13436533183812   12.47933061301159
H        -0.79653911635668   -7.19172942016614   12.67576991682875
C         0.20596598033928   -5.38644867643233   12.09463761108868
H         1.16668930285433   -5.86706047797601   11.97728367742761
C         0.08007435952030   -4.02441978218605   11.87384214725700
H         0.94278763469907   -3.44275436799381   11.58223496889931
C        -1.15158504295078   -3.40734344416552   12.02884444353738
H        -1.25431324239101   -2.34477412638736   11.86218429102276
C        -2.25448295970911   -4.14793327347987   12.41226201268935
H        -3.21409056872254   -3.66461674132701   12.54590097866905
C        -5.55879034782518   -4.63039579484984   18.51922954298903
C        -6.74856688508105   -4.99135655394207   17.90078366230307
H        -6.71093847610997   -5.54749899665686   16.97374290608627
C        -7.96406409392266   -4.63309207382496   18.45700919159105
H        -8.88432834913445   -4.91791658419816   17.96809430638988
C        -8.00014473283380   -3.91304773294545   19.63865074956609
H        -8.94759895663892   -3.62980073810673   20.07325074896329
C        -6.81634601926998   -3.55592107800501   20.26537188851094
H        -6.84144410132180   -2.99595039498805   21.18932131770795
C        -5.60150624429716   -3.91661962131284   19.71397846543008
H        -4.68271179285682   -3.63603973016073   20.20911482424760
C        -3.57096899595832   -6.40658634964696   19.12327972761524
C        -3.92350527853260   -7.73638460784756   18.92540171864983
H        -4.35642257554945   -8.03422205754630   17.97926095222453
C        -3.70804778958932   -8.67345327650987   19.91811234438197
H        -3.97924125169424   -9.70576561465398   19.75267631013122
C        -3.14223916119636   -8.28818154920457   21.12204837556334
H        -2.96916235073380   -9.01914600906700   21.89816057273763
C        -2.79341338107928   -6.96404039753711   21.32615783127548
H        -2.34812104368915   -6.66084982462782   22.26283104211078
C        -3.00851887459825   -6.02348168741031   20.33495446179155
H        -2.72245144446624   -4.99519424704984   20.50372878640854
C        -2.87311358521789   -3.79757512532565   18.13081551028735
C        -3.36404141329073   -2.49981850868278   18.00880216168500
H        -4.40999846352255   -2.34321999573714   17.78107971338898
C        -2.51930236865397   -1.41905273588799   18.18564933732853
H        -2.90848023281578   -0.41493232586164   18.10430140486179
C        -1.17668021723816   -1.62316009256655   18.45705254362003
H        -0.51948811662896   -0.77687079310977   18.59391410390406
C        -0.67656455506972   -2.91251442929334   18.54003892403093
H         0.37393880915011   -3.07474815869181   18.73676006643203
C        -1.51789251702785   -3.99888305941837   18.37770543561097
H        -1.13177275046077   -5.00693331347683   18.42871335824919

