82
CSD_code = QISBOK | q = 1 | S = 0 | Stoichiometry = C38H41OsP2(1+) | MND = 8
Os        4.59441047207761    9.46465452347201   14.14507350821849
P         6.36766022994832    9.65393608447009   12.66682695201530
C         6.70279235985156    8.33919801053557   11.45226868386629
C         5.74594616199836    7.35512026450754   11.23817276896773
C         5.95004822706808    6.37821476938978   10.27992281671051
C         7.11603221349969    6.38182925593502    9.53214964157032
C         8.07161125593372    7.36562950232225    9.73818710723341
C         7.86966133953299    8.34549828608070   10.69267961635207
C         8.01816637673104   10.05705353446018   13.30368771589312
C         8.83531645514461    9.00482144845918   13.71420690666947
C        10.07077002257888    9.25719013142841   14.27926767574182
C        10.49989714835698   10.56459873631676   14.44556782743602
C         9.69087853280875   11.61492886221993   14.04360479588623
C         8.45103688729787   11.36749936748286   13.48057409382974
C         5.92116484467082   11.05042744152202   11.53272743317186
C         4.54432754162668   10.74873582531934   10.94977670448539
P         3.37740174183238   10.28255156158666   12.32855485164487
C         2.11051229914558    9.25755976550924   11.51061550838325
C         0.80019475243455    9.35366658851072   11.98098925468673
C        -0.19390307517764    8.54844585680162   11.45721947363977
C         0.10740654131197    7.63116227725448   10.46280410114952
C         1.40727286616737    7.52401132893879    9.99683689693190
C         2.40715038332599    8.32499621748732   10.52064953912878
C         2.42894520352313   11.82206674958315   12.57356740160844
C         2.28851093213775   12.36459548260495   13.84422582252464
C         1.54446585135093   13.51651465720949   14.03142211989375
C         0.93325318919218   14.12829044579711   12.94965170840971
C         1.05793922428029   13.58195391243957   11.68114240612000
C         1.79723376962120   12.43004706357122   11.49052739094219
C         5.13898059947758   11.19440862601270   14.70545746368919
C         5.57341208808470   12.27171601521541   15.27199866570480
C         4.00071066318433    8.88409716178485   16.23809980233210
C         3.78005102608461    9.74095133823647   17.44591601422189
C         2.99108133105294    8.43743589037382   15.33126560880878
C         1.52134290697613    8.68622157647401   15.48415960167169
C         3.56473010112578    7.39865446854006   14.50076456178506
C         2.75919059149063    6.45274800579261   13.66266785931160
C         4.91970835532285    7.25561485633617   14.85736786601508
C         5.84887546707659    6.15552003479433   14.45179717915748
C         5.21934344249570    8.21881821051361   15.89342711714352
C         6.47727622002391    8.22603472853804   16.70658242649217
H         4.83938514407185    7.36953712807277   11.82917812540371
H         5.20357246790681    5.61465672701884   10.11637948438386
H         7.28136422166855    5.61833926909076    8.78780161058732
H         8.97740667306779    7.36814719657011    9.15137634248071
H         8.61442958968086    9.11196160343546   10.85561356146888
H         8.50259982684805    7.98572396468320   13.56493023268159
H        10.70088128387755    8.43698650014910   14.58854049982432
H        11.46466672339345   10.76356394102782   14.88573184524201
H        10.02815919129478   12.63283010723332   14.16902188477962
H         7.82533467440965   12.19077203352415   13.17187767418231
H         5.87366828701704   11.96366676868095   12.13316928403956
H         6.67594826954586   11.16078533449409   10.74892356957655
H         4.61744631149291    9.91143333922053   10.25170207212251
H         4.14680567673717   11.61411568217197   10.41398618838473
H         0.56291158710946   10.07623750273941   12.74988145705809
H        -1.20503725555754    8.63667081287979   11.82488270576598
H        -0.66796360666087    7.00263034494504   10.05330755297878
H         1.64593489074688    6.81170891668203    9.22150421381198
H         3.41445706541456    8.21802412971909   10.14657193563908
H         2.77367494697894   11.87139471223385   14.67787724633267
H         1.43689550837100   13.93574340391809   15.02057153672846
H         0.35341261215633   15.02678608663901   13.09385299747789
H         0.57230541091880   14.05321190354769   10.84027475564984
H         1.87150558977369   11.99169959885641   10.50441423179832
H         6.60901754797541   12.37708322000688   15.56826367198467
H         4.95570823849213   13.13451873689777   15.47432763337099
H         4.64785671827888   10.36180264140381   17.65911741870245
H         2.91486377590683   10.38793056822598   17.32031283175762
H         3.60080043625143    9.10024294937041   18.31107691530655
H         1.12977016333842    8.05198003101508   16.28207190344347
H         0.98327100467920    8.44701876993817   14.56933263308674
H         1.31385705755968    9.72212686438114   15.74815746507717
H         3.38909590025940    5.87305472780709   12.99074643428810
H         2.00888247311474    6.97163085761360   13.06711428302289
H         2.23710777410920    5.75165447572597   14.31692743609601
H         6.87099804774287    6.51463956660091   14.34128040847177
H         5.54774763280816    5.68586805653289   13.51840722115340
H         5.84987362194526    5.39001527252951   15.23047283821892
H         7.35658338910586    8.07714305844537   16.08161154617391
H         6.44312058579948    7.41990449129368   17.44196547455039
H         6.59367400173134    9.16733984084501   17.23893798745425

