65
CSD_code = QISDAA | q = 0 | S = 0 | Stoichiometry = C25H33Cl2N3OPd | MND = 4
Pd        4.25167500724313    3.30176372534162    2.60811212953533
H         2.60589182587096    3.73899802592053    0.74530081016602
Cl        4.84408253705261    4.81668524509184    0.98085494214732
Cl        3.50831607730632    1.80179615498523    4.17182711164562
O        -0.31653036107586    2.54680779294808    1.11883748523405
N         6.80607384559030    2.46724296325164    3.84571223626512
N         6.54711356557773    4.60315593116748    3.94419081328802
N         2.42884071179749    3.17318282792760    1.58725975443001
C         5.96567966128817    3.46592961899537    3.52429182150949
C         7.91684942308899    2.97756871842652    4.46865550391552
H         8.72762314897627    2.35697021225111    4.79040974863372
C         7.75542461955670    4.31928029399089    4.52822626241286
H         8.37936885132473    5.07992947623553    4.95013544374527
C         6.01841217763488    5.90778949255511    3.73518565883943
C         6.70007898144730    6.78481858792952    2.88726230696000
C         6.17559108445015    8.05087085081258    2.68974284087164
H         6.68806640140467    8.73345704938328    2.02744114581012
C         4.99404309866986    8.45328962425373    3.29762922561526
C         4.32987793004103    7.55624013271271    4.11819373121228
H         3.40120385679682    7.85059815477282    4.58637467108642
C         4.82109187309670    6.27817970289456    4.34962406933397
C         4.06668056494552    5.32888459358726    5.23263070409612
H         3.52882724744668    4.58386186694907    4.61890661406321
H         3.33546539205687    5.86578199421462    5.83175819830312
H         4.73873069407464    4.78778338413791    5.89884113020850
C         7.93105874894323    6.34805266916302    2.15278178038625
H         8.77210908335158    6.19115012319716    2.82683713761865
H         8.21450913178192    7.09711403692362    1.41872400915978
H         7.73022941663468    5.41381105419786    1.62954189802719
C         4.43962007886364    9.82038032741498    3.03747992088350
H         5.22871368109562   10.56885534064540    3.07193490696288
H         3.67576627266296   10.07781093599544    3.76681017939782
H         3.99114486449661    9.85402826678718    2.04463437428278
C         6.54754645993392    1.08366374424423    3.63467055391299
C         6.43102404731654    0.58794887888660    2.33556738860243
C         6.18164091552613   -0.76802248471858    2.16638256544931
H         6.08501713770536   -1.15843989703841    1.16321201187223
C         6.04246348536178   -1.62202527220759    3.24726917304269
C         6.14538822578464   -1.09590490417576    4.52846996118988
H         6.00930855385809   -1.74806099334789    5.37890424538384
C         6.38785028338838    0.24940704775282    4.74510754807006
C         6.39360472564087    0.80631599278258    6.13593306653064
H         7.35999127962010    1.22913064366272    6.40545795488975
H         6.14615156133271    0.02823083722701    6.85246818303742
H         5.64147997564464    1.59165280695965    6.20781750666790
C         6.54623734089320    1.48288372114755    1.13696699865306
H         5.59251293141907    2.02138285598706    0.97622067769116
H         6.75797902485085    0.89856541764605    0.24464258308889
H         7.33342916367016    2.22616784208372    1.26578646989514
C         5.77760148665689   -3.08367386117450    3.05412934344828
H         5.59911547388154   -3.31353659132817    2.00705165000964
H         4.90879473753400   -3.39032032971426    3.63352417064115
H         6.63034277042504   -3.66927921420935    3.39696709572083
C         1.35344198415543    3.81581175625189    2.34948691264441
H         1.65659313035246    4.83821810588675    2.61155727135053
H         1.18981229826727    3.23235235318557    3.26362078394683
C         0.06480134370617    3.84481446120344    1.51961949974891
H        -0.76844619643881    4.23713507941093    2.10476646814201
H         0.21176872301829    4.48221959676800    0.63090078558024
C         0.70201531533304    1.91870209427765    0.37111389359920
H         0.87546080970503    2.47691710064461   -0.56503786493735
H         0.32779377988358    0.92319416145758    0.12753602747287
C         2.00749395129187    1.83367301346373    1.16907832257840
H         1.85304447997636    1.22896830379007    2.06928548564873
H         2.79561130675489    1.37523855818081    0.56057470036697

