87
CSD_code = QISGUV | q = 0 | S = 0 | Stoichiometry = C24H50N8NiO4 | MND = 4
Ni        3.47505528708950    0.00119319476090    6.25088408840459
N         2.16857622479924   -1.09950588912885    5.35137425352867
O         0.81765397405523   -1.09232924706668    5.59587027659056
H         0.72146635369163   -0.41211542791230    6.38289808043757
C         2.65014943301037   -1.75316864415201    4.33923323493988
N         1.99103085939401   -2.52219188956974    3.42884917502662
C         0.55916798507256   -2.51870789160778    3.20493994203529
C         0.09496462357478   -1.30709350465010    2.39246340170505
C        -1.40499054489668   -1.36126444254023    2.12171640053067
C        -1.88552149207193   -0.15457588332949    1.31914607895894
C        -3.38347303995428   -0.21697545918522    1.04815686720658
H        -3.70697491759678    0.65227815393927    0.48045332252225
H        -3.93808715004312   -0.24233409014462    1.98328164287578
H        -3.63205724712685   -1.11026506799331    0.47907572531789
H        -1.34672689098711   -0.11279596765254    0.36939493522378
H        -1.65427035871140    0.75820965245630    1.87167524148837
H        -1.64287770332486   -2.27682704594471    1.57402757318582
H        -1.93653462839056   -1.39536993591930    3.07451210721534
H         0.63946764056184   -1.27149718530531    1.44408358771186
H         0.33058352807576   -0.40029316311059    2.95204794087402
H         0.05518343140281   -2.52544118803733    4.16986735722421
H         0.31620209306294   -3.44267387202594    2.67162333621003
H         2.53001969292938   -2.68405357526228    2.58839349027447
C         4.11879396666250   -1.67174770187077    4.23105333963807
N         4.67243502310444   -0.81947308564221    5.04462218161213
O         5.96106208575391   -0.60189452631696    5.06742101521389
N         4.72757479121157   -2.45161015404856    3.26549519842937
C         6.14177129444075   -2.40492844520840    2.94678400433767
C         6.34411609070635   -2.81035749131591    1.48776037346451
C         5.69386313903731   -1.81888479995932    0.52591349162063
C         5.83916578221877   -2.24863212902216   -0.93149181697603
C         5.18805880375302   -1.25213906866665   -1.88283580891665
H         5.30280807981024   -1.57513455133937   -2.91488835660062
H         5.64529737643459   -0.27094527473796   -1.77723091661868
H         4.12542337931049   -1.15738699071295   -1.66914286865846
H         5.38186195475508   -3.23198078875538   -1.06737778909902
H         6.89975444459368   -2.34262682609936   -1.17513610930171
H         4.63410557813716   -1.72204945268244    0.77145145959128
H         6.15247692026341   -0.83751071705991    0.66137810871423
H         7.41506053057133   -2.86683104641708    1.28746074063016
H         5.92276824484739   -3.80685049744457    1.32653556893971
H         6.71816007093300   -3.07352645164422    3.60069527887037
H         6.49633850679008   -1.38843420280106    3.10757549450770
H         4.34918864876308   -3.38923375962090    3.20823303500369
N         4.78156017391416    1.10176938679968    7.15055160123679
O         6.13244460028992    1.09477438574807    6.90581443391891
H         6.22862849941615    0.41452556226047    6.11882086590190
C         4.30007068606855    1.75490247928513    8.16308353788361
N         4.95924896723970    2.52341418365482    9.07385348325839
C         6.39110961554790    2.51958744107050    9.29771969764916
C         6.85509189377538    1.30760031165611   10.10978431062431
C         8.35537311067502    1.36044018171150   10.37900011526389
C         8.83600432943181    0.15188553334248   11.17865759033190
C        10.33442371784479    0.21248491408277   11.44756924535837
H        10.65758045122317   -0.65700568003551   12.01510095139030
H        10.88777951157996    0.23676812457116   10.51168825437019
H        10.58499486255995    1.10561612897353   12.01599289519761
H         8.29854206192517    0.10883405371865   12.12909459431862
H         8.60320693878353   -0.75967015214301   10.62476451355425
H         8.59434798055932    2.27477321933871   10.92825189789093
H         8.88589145267895    1.39614060181330    9.42570060765192
H         6.31145688386927    1.27241308277879   11.05869593699350
H         6.61816720183342    0.40098979239994    9.55039765515304
H         6.89502276157518    2.52642173467704    8.33274872692199
H         6.63436069003310    3.44336112770912    9.83124627979064
H         4.42024367832463    2.68499611883072    9.91434980707007
C         2.83142324793853    1.67349777757451    8.27125448830794
N         2.27767769781080    0.82189276154530    7.45705356716373
O         0.98900882543639    0.60468851532487    7.43386963296404
N         2.22265852856651    2.45269690468810    9.23739279763195
C         0.80842305051851    2.40559317234512    9.55593682271902
C         0.60568732572882    2.81085558767411   11.01494466352667
C         1.25549079393979    1.81912787460273   11.97683662882577
C         1.10980167527015    2.24878068989563   13.43423811268449
C         1.76025546147770    1.25196344207305   14.38568904873489
H         1.64533990936904    1.57495785460191   15.41772132082955
H         1.30265654653710    0.27095415377811   14.27992106322063
H         2.82291489063556    1.15679567749585   14.17230206320456
H         1.56736333564817    3.23197015689393   13.57040485410725
H         0.04915528515755    2.34307436143707   13.67752357633638
H         2.31530160138200    1.72211092364767   11.73159494655195
H         0.79671348295224    0.83785951269383   11.84113354045342
H        -0.46531742129121    2.86743781365250   11.21490522594621
H         1.02711051444075    3.80727207700682   11.17643973383600
H         0.23190763401744    3.07402595275250    8.90197737154965
H         0.45418247814585    1.38899983270149    9.39507406120629
H         2.60080320146027    3.39039875613631    9.29505579457500

