58
CSD_code = QISHIJ | q = 1 | S = 0 | Stoichiometry = C16H35N4NiO2(1+) | MND = 4
Ni        0.81694998923356    0.09957083845976    8.29923511553602
O         0.61019530245822   -0.75999810354197    5.29134880102006
N         0.82718650462055   -1.17652778023029    6.57926209047905
C         1.05533042837634   -2.42023748314091    6.76999117215204
O         0.04554441809621    1.54873546745146    6.44102822858407
N         0.63887106000126    1.67602865100150    7.54134977972807
C         1.30979441267849   -2.82200893822437    8.21143750824896
N         0.63933316581849   -1.81166350560575    9.06902939001176
H         1.01512552100909   -1.91421299324444   10.01266777699766
C         0.98983619804509    2.76251562294483    8.12672132441116
N         2.09864902257129    1.21862414002871    9.61028757372282
H         2.03027573527555    0.95313129450971   10.59323720045288
C         1.57434016417318    2.61939628810935    9.51323105185108
C         1.12112969138722   -3.42282891730811    5.67580683971222
H         0.20509401692999   -4.01214743327469    5.65368636261731
H         1.95535294921034   -4.10404951530180    5.81910227436291
H         1.22173984990715   -2.91516828048557    4.71986944648081
C         2.81997307169132   -2.72784325494748    8.46353405230925
H         3.36043714707128   -3.37598829223379    7.78014539753926
H         3.05661681338098   -3.03332789984943    9.48064198617556
H         3.15642625807901   -1.70603005412189    8.30435315461868
C         0.83701637341424   -4.24589305137876    8.51880738593141
H        -0.19099487243346   -4.41177041631217    8.21074045567510
H         0.91563393813588   -4.43819501196059    9.58699550858031
H         1.46450950623183   -4.96841103847724    8.00654700857341
C         0.72486867556663    4.09294558176277    7.50181067700631
H         1.66040574808738    4.57831507418395    7.22787600635965
H         0.19470226177644    4.74519294507290    8.19223854627000
H         0.12535123233345    3.95930263195835    6.60452573052613
C         0.41990901234295    2.72910230197069   10.52255092142950
H        -0.09863133780454    3.67623549281757   10.40864541488260
H         0.79754185211445    2.67191803830243   11.54129682509970
H        -0.29985154627777    1.92695428347306   10.36160484645570
C         2.60912192975843    3.69966605431428    9.82962921507493
H         3.38170617289593    3.76245808116025    9.06922047238878
H         3.07182262687431    3.51116779190144   10.79558283287202
H         2.11399691665764    4.66435301189946    9.88456112292330
C        -0.82800450903798   -1.97899883733910    9.14715050667811
H        -1.10657103570470   -2.76037965932541    9.86213574626264
H        -1.19553081787273   -2.26463896168598    8.15839918866679
C        -1.48450502013419   -0.65496582083657    9.54407403567569
H        -1.16576817699764    0.12973475520768    8.81707389270853
H        -1.16347083181105   -0.37522332058264   10.55232969299957
C        -3.00426093717944   -0.74390670698805    9.50524202767777
H        -3.34986154029291   -0.99102104526002    8.50482141959477
H        -3.45020759255103    0.20313086043651    9.79648780969266
H        -3.35519665350560   -1.51152576970331   10.19089862775549
C         3.51194855308575    1.02361187160598    9.22572423428924
H         3.81348394667926    0.03844929153570    9.59216280513116
H         4.15862466239537    1.76013248618278    9.71006318625824
C         3.71253390634615    1.07206692928702    7.71183428432471
H         3.53977002345961    2.08343277496288    7.34161447460373
H         2.96957682207760    0.40548912774752    7.23651658788615
C         5.11675027552692    0.62956852118131    7.32118247681417
H         5.86056780488392    1.28552100268926    7.76659243400424
H         5.23525511127675    0.66446015202204    6.24235712090894
H         5.31504359018819   -0.38639584927478    7.65461313385164
H         0.34881220955745    0.18994657646596    5.37592681715077

