111
CSD_code = QISHEG | q = 0 | S = 0 | Stoichiometry = C32H66N8O4Pd | MND = 4
Pd       13.11170531712650    4.35083598307911   19.81169807569045
N        12.56499103830744    5.68720024442330   18.41827920522476
O        11.69601170597707    6.73184702954406   18.70051736167757
H        11.35412466008665    6.52242156893541   19.64424695337674
C        13.29531301111722    5.65431430544464   17.34259537244621
N        13.37027833996477    6.54645706902429   16.33249352666958
C        12.42761301380620    7.58876780822268   16.00382997550851
C        11.56718106360230    7.21689329476643   14.79042071944451
C        12.35577565291467    7.22648586068600   13.48199168338363
C        11.48987263989049    6.82082659898129   12.29130196047496
C        12.25507931532419    6.90448125218216   10.97269985934320
C        11.40415425282635    6.46179798063411    9.78482639454689
C        12.15954160498111    6.59501096573851    8.46802080765143
H        11.54327947858945    6.25808487780390    7.63736650894184
H        12.43620861582044    7.63236415648194    8.29008030705635
H        13.06890015600954    5.99822995500115    8.48670588603603
H        11.09777492948398    5.42200578105656    9.92715480404359
H        10.49636841007953    7.06876999869927    9.74519155840634
H        13.14749747734967    6.27693955477119   11.02939905883894
H        12.58566375712251    7.93389485586786   10.81380166138281
H        11.12845457186445    5.79953991549496   12.43774652455930
H        10.61481266249457    7.47305219155528   12.24186122335154
H        13.20364080253896    6.54139432706793   13.54907026597417
H        12.75359486981434    8.23000583701992   13.31182581734018
H        10.74616569692121    7.93194568530666   14.71833810062008
H        11.13118980862746    6.22878617645766   14.95443303610075
H        11.79150233974421    7.75741150870993   16.87122299107956
H        12.98483100608640    8.50717477555139   15.79104788066983
H        14.06781748049740    6.32771621152735   15.63641489702360
C        14.19839963968000    4.49484776122551   17.28171804614256
N        14.32116918639731    3.81460855481125   18.38381623690904
O        15.09824808978005    2.78095161943788   18.49138838302253
N        14.92307744928958    4.22367818862835   16.11317335458982
C        14.16237299006285    3.74061933366566   14.96177777839590
C        14.97374082606551    3.91817215591030   13.68102796683759
C        14.18048287546478    3.48030416397722   12.45275723430885
C        14.96974421339480    3.67389171662322   11.16055243517237
C        14.17346209197390    3.23229227548079    9.93523917311712
C        14.95024374117404    3.44057609216816    8.63761675136907
C        14.14342364855096    3.00959488444834    7.41901054913164
H        14.71178375244027    3.17171505829224    6.50608343877895
H        13.89160266262391    1.95325767635486    7.48376780308057
H        13.21786523820785    3.57763407895652    7.35266333236609
H        15.21809705136063    4.49588606570374    8.54173456144565
H        15.88033649278977    2.86918152781384    8.67846259730999
H        13.91601019873730    2.17525302451860   10.03424530202684
H        13.23855795085073    3.79534913871390    9.88949361590978
H        15.24086910962736    4.72775673410756   11.05566339459647
H        15.89850478251392    3.10134658403883   11.21424391288160
H        13.91027918222491    2.42701004936458   12.55593626490912
H        13.25191363970780    4.05341639399221   12.39747155230045
H        15.89178195976799    3.33193029052330   13.75382167909364
H        15.26350703971205    4.96684675447938   13.58002066549272
H        13.88791376161789    2.68244496534484   15.07855000919871
H        13.23314149831356    4.31277489097923   14.89614970683787
H        15.66367994510942    3.56493716278409   16.34905485481275
N        13.65889601459829    3.01493186990869   21.20546488513294
O        14.53030359128502    1.97198141008617   20.92482994242321
H        14.87012408192421    2.17971322205093   19.97993184381408
C        12.92828334684705    3.04749753581356   22.28092124554783
N        12.85453922468811    2.15583292421375   23.29160729670605
C        13.80417271653070    1.12183607402514   23.62643791260844
C        14.65892548306923    1.50560474779497   24.84021114533120
C        13.86769900746638    1.49666837132535   26.14703961925130
C        14.72473694765544    1.92346238460612   27.33663356676455
C        13.95602250481302    1.84365431035564   28.65344491929870
C        14.79594149048033    2.31220331859289   29.83914128364445
C        14.03777646302628    2.18440163554685   31.15471247574656
H        14.64556620793185    2.54042035056151   31.98355276242156
H        13.77574219119114    1.14560363322049   31.34401833668003
H        13.12001612074921    2.76715449317748   31.12544992055931
H        15.08800052818063    3.35425850778609   29.68566697410517
H        15.71200645010941    1.71908000167237   29.88934721327322
H        13.05492075601613    2.45748752400546   28.58659816168339
H        13.63973498784032    0.81158442373835   28.82289791138481
H        15.07456669371525    2.94743218598822   27.18140219042528
H        15.60716441153097    1.28211610955358   27.39491679153257
H        13.01133073503840    2.17024879071124   26.07239025076503
H        13.48219379864164    0.48967202246002   26.32437881202322
H        15.48527856574686    0.79735458899786   24.91769288819917
H        15.08765560071057    2.49627220973549   24.67254060446211
H        14.44314046652417    0.95405110400995   22.76092778128900
H        13.25319141577412    0.20046273977362   23.84227730392920
H        12.15588634319598    2.37397772231284   23.98682348589596
C        12.02271289400917    4.20494540693327   22.34054732844614
N        11.90121822610211    4.88615415315209   21.23894316686469
O        11.12262134809505    5.91851770496589   21.13095055732117
N        11.29514593127785    4.47399119658587   23.50799281215584
C        12.05255538888834    4.96425986756571   24.65856909304823
C        11.23643856772158    4.79616587702883   25.93746478353352
C        12.02337425058326    5.24742752850005   27.16493162713376
C        11.22778704040308    5.06735477069714   28.45518675124250
C        12.01665919779690    5.52513599736184   29.67929949583886
C        11.23297071872165    5.33192717922594   30.97513360509883
C        12.03401042337592    5.77702961887166   32.19252237214910
H        11.45994035835937    5.62748726595893   33.10417202857850
H        12.28827964517795    6.83219165701682   32.11572266523256
H        12.95813115625424    5.20776484595724   32.27122146505899
H        10.96439025609567    4.27778010544767   31.08201865474186
H        10.30323224330729    5.90311028623121   30.92278969742850
H        12.27325808018783    6.58122788236435   29.56845219606559
H        12.95201586107961    4.96398291659242   29.73699209611046
H        10.95822295424250    4.01428830190663   28.57115341107355
H        10.29818935173866    5.63726667282326   28.38976693690407
H        12.29346085647831    6.29976356188580   27.05190102164265
H        12.95194655628512    4.67550584376720   27.23096356353501
H        10.31732822710556    5.37960967656107   25.85544399305192
H        10.94876063619702    3.74774307972464   26.04677468214512
H        12.32815355601036    6.02147631377421   24.53554360915139
H        12.98112370235607    4.39187215512901   24.73114167070488
H        10.55200373033157    5.12922300958652   23.27012017394346

