55
CSD_code = QISJIM | q = 0 | S = 0 | Stoichiometry = C25H19CoN6O2S2 | MND = 6
Co       15.55259761013075    0.35075988849345    4.08961595335018
S        15.18276419935508    2.41654243777648    4.93835697885550
S        14.71645228060294   -1.64622997004722    6.36608097383388
O        13.43664322660598   -0.22627113447130    0.82946992611596
O        19.27766000558505   -0.16002372811749    5.28149815162910
C        14.95126965168104   -1.42076725911026    2.21368902728357
N        15.69254052053941   -1.31978570501300    3.32252225639901
N        15.68380466805145   -3.63916032064383    1.80386214395669
N        14.23593676409149    0.70575602685399    2.79707679329266
N        16.98488079867335    0.09453943772191    5.32462416647681
N        16.96697466355030    0.98441713268711    2.87464095974871
N        19.25723842110247    1.10917351441110    1.31070796250003
C        16.40993782248618   -2.38108104018559    3.68606426636887
H        16.99272425861362   -2.31895408164623    4.59318477766684
C        16.39584915153645   -3.53558836031226    2.91399799426914
H        16.97616573317125   -4.40043834586018    3.20012495390255
C        14.96103247348772   -2.59105847789558    1.45859317028746
H        14.36191942970855   -2.65698079001217    0.56153194623184
C        14.10603455440070   -0.24066189452558    1.85323961484825
C        13.56504647805958    1.90996025178616    2.77853082817930
C        12.56450923121817    2.26674912685955    1.86491743611504
H        12.28360499151041    1.56473134157053    1.09761056642276
C        11.95125245037911    3.50031623023723    1.94972860364510
H        11.18162798392607    3.75261045188512    1.23584026367213
C        12.30727863514317    4.41630583239229    2.92921939034378
H        11.82285725879829    5.37867143133379    2.98192552391178
C        13.29582417750485    4.08678127392445    3.83911643452015
H        13.59959990252866    4.78158356453503    4.60761602559255
C        13.90291962869333    2.84771913197465    3.76408777042771
C        14.14547018768231    1.90415814358612    6.35665074821049
H        14.84879064349325    1.66190774260401    7.15242775750730
H        13.53774616339592    2.75971589431543    6.65071215131577
C        13.30461803925784    0.71259777934637    5.94663994266122
H        12.51826003589628    1.05457632765560    5.26670326671105
H        12.81935638929888    0.28874404658939    6.83132665666904
C        14.11843057924896   -0.37427602719758    5.23034544605180
H        13.41338076662591   -0.95810649218742    4.62243108531206
C        15.88860901033290   -0.73752808701171    7.33649484813723
C        15.79901913931083   -0.80549565928229    8.71742965124196
H        15.01508529873800   -1.40290317903551    9.15736159510866
C        16.70373782559700   -0.12423643304647    9.50968506061086
H        16.63320912971225   -0.18331500129828   10.58489858260092
C        17.69261810588738    0.63878792857146    8.90895713293667
H        18.39771132388997    1.18703138559821    9.51540871054024
C        17.78571751794545    0.70800167903697    7.53383318703307
H        18.56058030007940    1.29984401803285    7.07376948759469
C        16.89842339121638    0.00549075292910    6.71279430595007
C        18.20556226380177    0.12378684608240    4.76303543075626
C        18.14875394492373    0.56953359900224    3.33695581889160
C        19.29157241870708    0.63401187895637    2.53932626727158
H        20.23835618966505    0.28501476542079    2.92622805027109
C        18.08560801799552    1.54361082608968    0.86856903312359
H        18.06742692833332    1.95198208754941   -0.13140245422291
C        16.93393583511024    1.47989446499154    1.63897425703925
H        15.98497358271795    1.83115474610008    1.25916912082916

