37
CSD_code = QISLAI | q = 0 | S = 0 | Stoichiometry = C14H14CdI2N6 | MND = 4
Cd        5.83691365322682    6.26140141874428    3.47185339009554
I         7.56063268191885    5.33878252367060    5.29226080329608
I         6.19014362463599    7.72962221345169    1.19467006272866
N         3.98550318613167    5.11090489261547    2.82152811969124
N         2.30901436815425    4.98742090807710    1.36176112008319
H         1.52490950653750    5.27535811504183    0.80205518026895
N         2.64048861547029    7.03292242285455    2.53310328918297
H         3.29204130504024    7.55154417881899    3.11138843355872
H         2.15828983729718    7.56292599121625    1.82605817220277
N         4.78851531935667    8.01438229829250    4.74796470592308
N         5.19535213782688    9.56363157948329    6.30250183996123
H         5.54411439361945   10.40871084260874    6.72122000054730
N         5.83452428428421   10.02024440394533    4.05913867626623
H         6.03887264726768    9.61513213385347    3.15186683981045
H         6.42858989486559   10.77527584291889    4.35547867441294
C         3.00142985100140    5.76444826190707    2.23917033942575
C         3.95258383046937    3.82968018013029    2.30141387615398
C         4.76732782519584    2.73630643964142    2.55854302750417
H         5.58024095983443    2.79792528290814    3.26951154206031
C         4.49467407466969    1.56772936527544    1.87216346448766
H         5.10924651962046    0.69787620046428    2.04705565054385
C         3.44695086042338    1.48261184970756    0.95812447155250
H         3.27057853590110    0.54992056494504    0.44458859907289
C         2.62766107918684    2.56580826460250    0.69079770894867
H         1.81827137311261    2.50057710883024   -0.01990677616642
C         2.89578613016807    3.73515748415388    1.37492775751585
C         5.31903548089055    9.19726563378876    4.99582255483949
C         4.29589793800019    7.56524336070574    5.96405055127855
C         3.65034396084759    6.37920299184352    6.28294467226567
H         3.45811098656698    5.62822834726594    5.52791383097570
C         3.27362190922828    6.19629494375426    7.60018994496559
H         2.77615719534215    5.28143223788137    7.88419158573513
C         3.52418280119825    7.15931209900302    8.57449263691781
H         3.21482312580444    6.97306627715893    9.59144605269394
C         4.16635953104694    8.34699798458832    8.27047988724770
H         4.36611211730394    9.09091459111314    9.02613871040984
C         4.54599845855424    8.53224076470999    6.95569060353514

