94
CSD_code = QISLOU | q = 1 | S = 0 | Stoichiometry = C35H56IrNP(1+) | MND = 6
Ir        3.17289612041959    2.52786161096073    4.49398124514228
C         3.58169148408399    4.61853950787736    4.90053277164268
C         4.11857653006765    3.88180051764474    5.95046506725765
C         5.59898435253738    3.63229267553399    6.12319860832180
C         6.04908992868580    2.32442967506775    5.44902817770797
C         5.23033480711843    1.95547264719581    4.23548081040662
C         4.91329302166558    2.81830880646411    3.18886174153566
C         5.37864246285764    4.25823779718362    3.12786907430821
C         4.37267556534813    5.22900420047439    3.77217367148247
N         1.48980331403426    2.52220141105747    5.66439831369822
C         0.44368973304618    3.32524486631404    5.44892635291280
C        -0.69606798499601    3.29558616377023    6.22682549983366
C        -0.76531236284648    2.37757325818414    7.25947365456177
C         0.31822759197915    1.54082639241775    7.50596776710504
C         0.24711596348989    0.54684801677283    8.62664608616366
C         1.30508463542965   -0.54248781627022    8.50411413137096
C         2.66190918495386    0.11073738806745    8.28049167376151
C         2.67427046528650    0.82576771258869    6.93234218837650
C         1.44895445961999    1.66083509996694    6.69724640427954
P         1.99563677759530    1.23388516781563    2.80499939107361
C         0.27388303753548    0.62593314614264    3.28619053508807
C        -0.76479266726165    0.36219558489525    2.19260873285742
C        -2.12740354835647    0.11042764802141    2.84349356073442
C        -2.07801876746114   -1.06585706707767    3.81236620969843
C        -1.00609102276459   -0.83446444769273    4.87199897676413
C         0.34291019173428   -0.59984019514486    4.19748955017522
C         2.93703391606136   -0.17927491330331    2.02121281904531
C         3.45617165912915   -1.19408631223350    3.04263341902728
C         4.50074917411268   -2.09072160569615    2.38069387216384
C         3.87901457973755   -2.82783030205047    1.19740414664173
C         3.28204010212913   -1.84137512595089    0.19760548744025
C         2.25926383565006   -0.92737578158549    0.87427595184710
C         1.56941411761527    2.30211985144188    1.32808555176135
C         2.75303835189069    2.76224467581297    0.47959496156720
C         2.24545474639952    3.54215949373607   -0.73320837908782
C         1.46629995660977    4.77229865158281   -0.28117941005355
C         0.30584618120556    4.35951605802909    0.61732540973342
C         0.80263233111687    3.53710866950502    1.80477688433111
H         2.63405099570055    5.12236021295900    5.08281212270992
H         3.54921450986527    3.87245560448662    6.87656412097881
H         5.28939536011957    0.89466090706861    3.99707643241862
H         4.77434820584311    2.35455722437696    2.21834189603349
H         5.83069429491023    3.57587906913373    7.18753556765177
H         6.15247343966794    4.47984822278517    5.71975021403716
H         7.09896195199782    2.39820595026746    5.14989770372046
H         5.98437216163085    1.50587624593418    6.16884682772284
H         6.35039328527548    4.33734115288430    3.61463001891045
H         5.52036414497296    4.54487632717076    2.08511401078635
H         4.89461938610892    6.11479439794538    4.14611335406129
H         3.66993306421207    5.57343431205622    3.01114988202199
H         0.52207895767610    4.01231200983772    4.61938113344800
H        -1.51216823320261    3.96753209208938    6.01783241520201
H        -1.64908364728970    2.30611920663307    7.87481573687265
H         0.38708902240649    1.08417409234196    9.56991329870342
H        -0.75302903795567    0.10980478899754    8.65361813570211
H         1.31610407432069   -1.14725098776077    9.41038679117864
H         1.06836344155176   -1.19846663412989    7.66388729919050
H         2.85261211958341    0.82688831504640    9.08210432453062
H         3.45692652561452   -0.63491544573194    8.30253822874105
H         3.55746002154670    1.46393266568917    6.86274565685941
H         2.75218381251103    0.08362207495227    6.13060206954952
H        -0.11458412964336    1.45675763100032    3.89185498121338
H        -0.86844681108650    1.21476126418378    1.52300342323823
H        -0.48468363902510   -0.50744157397806    1.59866347033376
H        -2.43984642467452    1.00901108372998    3.38210492327609
H        -2.86687854062150   -0.08345331469704    2.06508918006426
H        -3.05161414388495   -1.19580475354796    4.28648675699307
H        -1.85137697548881   -1.98153669067787    3.26233368879345
H        -0.94355146983895   -1.69994325631931    5.53439932875898
H        -1.26988689204937    0.03535037926977    5.47950627073906
H         1.12016065775949   -0.47046181924507    4.95154499028870
H         0.58487456671001   -1.48232810154543    3.60433536062549
H         3.82083007044419    0.32958747599661    1.61025633814996
H         3.88635192596650   -0.68107827399175    3.90634865969051
H         2.64339407397424   -1.82400628611557    3.40157523902025
H         4.88428842459547   -2.81076230958010    3.10543940022566
H         5.34117646252045   -1.48484297636807    2.03403133580937
H         4.63402250934185   -3.44082315386023    0.70413759032461
H         3.09459843632941   -3.49571799733264    1.56024734296511
H         4.08059340361701   -1.23423133414249   -0.23507244070956
H         2.80166226669198   -2.38624374491137   -0.61647390735238
H         1.44193907254823   -1.53844419065731    1.25925837508680
H         1.85250707844869   -0.23500171266272    0.13647656512979
H         0.91836998067159    1.70111175507696    0.68476075802130
H         3.38932775354076    3.42288266267522    1.06665852850770
H         3.34395235820111    1.91184215138104    0.13651652795073
H         3.09151229764057    3.84436550654026   -1.35226259652875
H         1.60075494918191    2.90342808686971   -1.34074362730858
H         2.13232782985311    5.44259691459821    0.26690382670045
H         1.08854546816534    5.31480381326210   -1.14830921479223
H        -0.22066686568312    5.24509627351285    0.97779603813061
H        -0.40489856829306    3.76497917539814    0.03876783700255
H         1.47524082883165    4.14604281293560    2.41576852267914
H        -0.05199603731005    3.24651957060222    2.41844837525032

