49
CSD_code = QISMOU | q = 1 | S = 0 | Stoichiometry = C25H16CuN4O3(1+) | MND = 6
Cu        7.23577495383329    3.11746455545381    2.92961084414456
O         6.62065227274199    4.51935823651847    2.08832651737309
O         7.22894896003173    6.52297723484940    2.93146109441929
N         5.15394941548191    3.06984874554526    4.05200192406631
N         6.28342936048842    1.91174200235992    1.86118481781810
C         4.63538392368465    3.76634272582851    5.03666070553767
C         3.25855873741435    3.99122243574752    5.16415119538067
C         2.40456795789058    3.43131561643643    4.24475214778372
C         2.93505065210388    2.68314643826143    3.17664943555801
C         2.13243700680207    2.05475173906069    2.18154128390631
C         2.69990558522771    1.35462495104170    1.16905091863531
C         4.11624149085346    1.26579484522283    1.03592271808588
C         4.74358802704205    0.60479623305889   -0.03223361054866
C         6.11701763407513    0.60110775177324   -0.11137711599316
C         6.85470967328210    1.28882611355911    0.85205235398687
C         4.94362868369320    1.89704884971786    1.99473847169517
C         4.33913408251518    2.56627723017010    3.10867483198729
C         7.23170476884153    5.33522096245081    2.93055885740944
H         5.33765043364357    4.16103194859011    5.75832508148026
H         2.88643893161174    4.58605898406374    5.98260074587825
H         1.33531097510977    3.56057979657488    4.32413939911874
H         1.05948908930190    2.14722925463417    2.25619599340879
H         2.09009450986133    0.86684049653395    0.42417487611459
H         4.14177815448568    0.11813694821737   -0.78531613718422
H         6.63010905753739    0.10214057558174   -0.91737879448829
H         7.93114074698600    1.34950851088328    0.79719292323243
O         7.84620075410230    4.52082963798170    3.77168695486364
N         9.31537553836059    3.07372184069879    1.80441372017242
C         9.83163485916381    3.76976919892573    0.81825813037190
C        11.20856197249982    3.99067989707363    0.68508741051315
C        12.06476433863651    3.42752063319578    1.60044635090512
C        11.53665313909834    2.68011705662529    2.67027128517230
C        12.34164743457969    2.04901230909551    3.66171480538703
C        11.77639561939886    1.35016435489432    4.67632415968547
C        10.36037075693346    1.26472122407551    4.81499303933788
C         9.73572470809109    0.60502508953571    5.88554929380072
C         8.36261739369197    0.60432030111119    5.97002686386216
C         7.62259440692780    1.29283586546941    5.00893307523844
N         8.19134690456326    1.91429900484369    3.99748333818545
C         9.53067393449712    1.89784579931975    3.85940709250369
C        10.13253693950355    2.56688060655674    2.74389132731974
H         6.54643772106671    1.35529811510891    5.06740712681204
H         7.85162286202560    0.10671314038536    6.77820003351749
H        10.33942283363515    0.11709648067247    6.63628954726585
H        12.38793808821180    0.86062713592990    5.41862588212618
H        13.41452784848000    2.13855215107537    3.58264727911766
H        13.13405099197166    3.55369749423341    1.51659912218254
H        11.57898249593078    4.58496459967589   -0.13453599719141
H         9.12732337408494    4.16721488137884    0.10011868004315

