49
CSD_code = QISMUA | q = 1 | S = 0 | Stoichiometry = C25H16CuN4O3(1+) | MND = 5
Cu        4.52448091662112    3.08544881596280    2.82044123915878
O         4.88092761739212    1.59669347044361    3.66000460538499
O         5.82465287628834    2.31255228986462    1.94783539173341
O         6.53248585716555    0.33584331609058    2.77789309351878
N         4.55340341382379    4.61295008981160    1.74127846651127
N         6.19492363420729    4.36438683545490    3.90104470789686
N         2.78671445531997    1.88001161975862    1.75545564979108
N         3.07057513944641    3.49849125219145    3.92639485481832
C         3.70870183131409    4.76134524146049    0.74270761447154
C         3.86899209767855    5.75176071693153   -0.22620037313380
C         4.96516796679653    6.58046001826285   -0.16220261569323
C         5.87872241813017    6.43506540164269    0.89404551247748
C         7.06068025612483    7.22319101368139    1.01067811859580
C         7.95052652182298    7.01059012113377    2.01075527229022
C         7.70873250845738    6.02179882618857    3.00727312611838
C         8.60096530379832    5.74626884447367    4.06083605555918
C         8.27767401836462    4.77896604981508    4.98166338433250
C         7.04580059267096    4.12135450048987    4.87080183509527
C         6.52071056001356    5.26286515441622    2.95572539621003
C         5.61564256111058    5.43227096815489    1.85728239511030
C         3.18592698375572    4.35059564038868    4.92313352535888
C         2.21369322755124    4.47025025768807    5.91591533595495
C         1.11530260045257    3.64268537440826    5.88103786237394
C         0.97554439523915    2.72639035093933    4.82642525731226
C        -0.10801203035563    1.80466676701055    4.73756008102213
C        -0.17621271499481    0.89620102472006    3.73393557355012
C         0.80776788093713    0.86773059813856    2.70417425594602
C         0.79277847709765   -0.05410163007154    1.64022377149162
C         1.77957043938357    0.00368307477948    0.68578312998653
C         2.75346212228375    1.00658710300964    0.77583246869613
C         1.86440930858047    1.80170481638950    2.73057347697454
C         1.98468252312640    2.70764922045797    3.83467395982281
C         5.83370934555486    1.29611607311344    2.79397584792070
H         2.88596640595244    4.06347609760845    0.70131153316958
H         3.14893345839380    5.83637331187978   -1.02376964549951
H         5.14017145822499    7.33089019821993   -0.91878321801566
H         7.23866905051355    7.98177753724348    0.26408141117421
H         8.85948286433528    7.58928567048084    2.07405563374706
H         9.53005864616206    6.29288522918087    4.12767232660639
H         8.94748903258025    4.52976646767795    5.78877130713795
H         6.73856451853033    3.37874893509458    5.59471198079387
H         4.08551904865175    4.94689137665241    4.94396162400942
H         2.35012301552326    5.18665907182558    6.70971129140444
H         0.36597028295990    3.68009679033295    6.65785170422821
H        -0.86276877834733    1.83496020146560    5.50834145920233
H        -0.98100798961646    0.17793081019227    3.69236670846439
H         0.01082707259550   -0.79741473424338    1.59124819250589
H         1.80788948898497   -0.69857781499104   -0.13162304645732
H         3.52650931939836    1.10607763417845    0.02593246087082

