65
CSD_code = QISPEO | q = 0 | S = 0 | Stoichiometry = C25H36ClOPRu | MND = 8
Ru        6.24188257455385    1.28737981414715    0.42716805460718
Cl        4.79940210663615    2.52503990922690   -0.99540690987784
P         4.71898050953441   -0.39555680642941    0.49945009833602
O         5.02269347723972    1.99256889922927    2.00228913927391
C         3.24157942226220    0.61613022346881    1.14049830908841
H         2.97903592126297    1.15870770166650    0.21683836478218
C         3.87326786606837    1.57474909021653    2.10693089219970
C         2.96080206619580    1.79226577600570    3.29136200074935
H         3.49804169873199    1.69395046988129    4.23728134420736
H         2.53951404404068    2.80179843571157    3.25944552688889
C         1.89396032284312    0.75584698718311    3.08910872889190
C         0.84420409594294    0.44216622262091    3.92885500339751
H         0.72893770899322    0.94771208629277    4.87635936296082
C        -0.06500726954022   -0.52917297655909    3.53415247231904
H        -0.88812677224052   -0.78680214328523    4.18355611980419
C         0.06752328440166   -1.15954594920124    2.30815174676288
H        -0.65720665650818   -1.90103227133131    2.00629395009150
C         1.12030460246620   -0.84593085124121    1.46113627549379
H         1.21262045061638   -1.33183678708172    0.50149507664470
C         2.04586853782485    0.09993335598589    1.86350254488282
C         8.08381972722769    0.91771412916538   -0.75414488332905
C         8.23166278223336    0.25344199348013    0.51847649446362
C         8.17923193508978    1.24410221027243    1.53923571298109
C         8.03692643900283    2.53007655619995    0.90437827733077
C         8.02513085005394    2.33135137835013   -0.49640359064468
C         8.37633974008105    0.32776174164000   -2.10361819228158
H         7.71224356017368    0.74414514035317   -2.85937517535164
H         8.26389957622492   -0.75410869913213   -2.09600533711040
H         9.40445418450330    0.56151124856447   -2.39115917118055
C         8.62541107499210   -1.18216685951953    0.69665748471419
H         9.70663199928060   -1.27637179958779    0.57347342430044
H         8.14358702958823   -1.81709430756972   -0.04446687071037
H         8.36428711646739   -1.54537020952382    1.68830591609915
C         8.49208804461188    1.05203608559704    2.99217080164458
H         8.39272539003100    0.00925985466016    3.28598114864253
H         7.83568955359954    1.65346829890138    3.62013417673784
H         9.52037434257556    1.36479261279673    3.18771427088123
C         8.10717722128678    3.84323722852745    1.62208308026997
H         9.15055306246460    4.11994309679596    1.79298357652836
H         7.60794458639967    3.78426747629716    2.58801957330623
H         7.63155812893176    4.63184417395489    1.04232949813045
C         8.06003164748673    3.37774206722531   -1.56490641092106
H         8.00331178665807    4.37677484708056   -1.13982193753988
H         7.22635137211383    3.25369780471803   -2.25611794767616
H         8.98872007919528    3.28902478167969   -2.13147991533903
C         5.01105493859627   -1.74069212595761    1.77165546255068
H         5.96096274322194   -2.18746932969761    1.44952897201253
C         5.23739184811387   -1.07970115852908    3.12891510670962
H         4.28804453557092   -0.76708517417930    3.55931317251993
H         5.88268014841512   -0.20655212667811    3.02093987841228
H         5.71070148880397   -1.77550816425250    3.82060844542775
C         3.96465011324739   -2.84475876360484    1.88292498462314
H         4.23176014637929   -3.50355276240921    2.70882291097052
H         3.91776253941959   -3.44958915805502    0.98130596401453
H         2.98019843624961   -2.43180380127984    2.08692275881011
C         4.00313316203782   -1.33935322797031   -0.93617015825543
H         3.28631204441608   -2.07512629093120   -0.55828631185210
C         5.17990778426821   -2.04924114238347   -1.60082657538878
H         4.84968061274975   -2.61232369652704   -2.47213576401118
H         5.66767357076884   -2.73728356653729   -0.91150049179947
H         5.90459045799469   -1.30210233898652   -1.92220338074944
C         3.31176388868960   -0.41107680976250   -1.92824047005134
H         3.92891240444744    0.46583753231177   -2.12028144383136
H         2.34616702490195   -0.07681848505446   -1.55485713806761
H         3.14622289014516   -0.93255144694872   -2.86954802749019

