88
CSD_code = QISPAK | q = 0 | S = 0 | Stoichiometry = C37H47OPRuSi | MND = 9
Ru        1.76099050292879    0.14708012242799    8.00115030454373
H         2.55763972618127    0.94019861765632    9.04273585567180
H         1.73440226592997   -0.09718615872344    6.48279053737045
P         1.85124061187464    2.28446656577708    7.06714919442418
Si        4.01448690539068   -0.34395186916605    7.43890661120152
O         4.60151522474402    0.58802643441470    6.15775595917379
C         5.31647665236098    2.42488162899362    4.79927362488401
H         6.31587311698584    2.45373154448665    5.23784223600859
H         5.38088811465414    1.83550192698937    3.88242576211498
C         4.33372245207395    1.80799640646695    5.76451392980383
C         3.31717305498592    2.66954076233080    6.06319099605991
C         3.57645175794379    3.92627169166132    5.34300793052664
C         2.92413382638150    5.15272513408398    5.32189704291443
H         2.04569623540984    5.34189071099047    5.91696740369716
C         3.41792160805144    6.17951023542437    4.53246666579878
H         2.90182338856158    7.12884637341419    4.52106497543070
C         4.55756984248639    6.01301377309374    3.76492215669293
H         4.92237602979165    6.82520878825027    3.15431465158231
C         5.23740529995753    4.80389612036326    3.79433219662402
H         6.13868833066758    4.66508386376467    3.21499757694307
C         4.74916639235761    3.78425118836070    4.58044607748403
C         1.50709251268663   -1.62710993666533    9.32140279385074
C         0.82493773077459   -0.53783617866432    9.96234007707765
C        -0.27524118608029   -0.13884161132848    9.14229767864223
C        -0.23206880903842   -0.92260458033551    7.95624195225732
C         0.86424630994417   -1.85902611410754    8.07342956104108
C         2.49013583941710   -2.53701549439236    9.99586950351784
H         1.96158954503429   -3.18549621023891   10.69960111154644
H         3.24341982870167   -1.97789472034300   10.54805981131767
H         3.00152621971814   -3.16225534880129    9.26821702447892
C         1.00168294553704   -0.16654870347683   11.40521855040758
H         0.70737111308941    0.86354516625340   11.59947348696490
H         2.03463684967197   -0.29570497483675   11.72230318503289
H         0.37480262570689   -0.81799293082105   12.01956481586993
C        -1.43899927027410    0.67515665944427    9.62608037207455
H        -2.13285843512139    0.01386553314114   10.15297790985439
H        -1.98387673941205    1.14445727921809    8.80967215781302
H        -1.12583077537641    1.45091172611148   10.32117852941592
C        -1.34431712659890   -1.07311307043778    6.95973802838134
H        -1.97382402629815   -0.18681133264768    6.91372645071404
H        -1.97306318398170   -1.91802164320053    7.25307326765558
H        -0.96155676644801   -1.27402497379796    5.96047044083001
C         1.03033382432059   -3.07555577362091    7.21230660447207
H         2.04579687547578   -3.46170416575903    7.26031596186523
H         0.80334361793694   -2.85933892845325    6.17027736077036
H         0.34616256240024   -3.85621469003101    7.55562552061952
C         1.83073242709925    3.73799271003442    8.25823236240739
H         1.45343202727291    4.61587867149386    7.72459410082710
C         3.25253377464956    3.99851866007261    8.74629062400581
H         3.87409484863074    4.40337798070378    7.95180212801023
H         3.70077818268828    3.06611909764007    9.09196468055645
H         3.24400777151121    4.70787261163939    9.57276003768900
C         0.91250632477712    3.45880915170299    9.44032164019013
H        -0.10863478124156    3.27883971569019    9.11475452219601
H         0.91148430581593    4.30505342974838   10.12698013239761
H         1.27048081588375    2.58080483924773    9.97518014695813
C         0.54447546666593    2.76120922015298    5.80608229825885
H         0.79975640056568    3.76117976529903    5.44561540116826
C        -0.84885217088701    2.77989806426220    6.41700771058684
H        -0.96905989414373    3.61117289992721    7.10854197998863
H        -1.02019721908242    1.84792704674260    6.95036842929580
H        -1.60411645255257    2.87635075564323    5.63745507589573
C         0.60642937710273    1.80358961899252    4.62327753023713
H         1.61670362518930    1.76453390458840    4.21881619390522
H        -0.07199097890414    2.13081062332488    3.83632768108056
H         0.32209492988457    0.79972044453511    4.93220548390726
C         5.48340442833865   -0.19213438520080    8.67712276284874
C         5.32466138314956    0.12030539782322   10.02105770313733
H         4.33291427521440    0.32960458062071   10.39837208286252
C         6.40681033861167    0.17898622000736   10.88219258683986
H         6.25727697308398    0.42284185041019   11.92531160779948
C         7.68181394863867   -0.07425589126244   10.40764434916921
H         8.52987920355748   -0.03122261969370   11.07643639229395
C         7.86296194384509   -0.38168896925659    9.06925371183063
H         8.85654727527791   -0.57932603893615    8.69136611228326
C         6.77419638801781   -0.44101547633866    8.21879674455941
H         6.91789896879982   -0.68813226039287    7.17729265354560
C         4.31968576044459   -2.05581619930516    6.64356600827260
C         3.90761886386791   -2.32907010636164    5.34386267498504
H         3.43795348416799   -1.54236349758262    4.77105006508047
C         4.09005071218569   -3.57860779370585    4.77956072330576
H         3.76615137795553   -3.76929480213505    3.76550961748583
C         4.68565487577448   -4.58978439234697    5.51509715495167
H         4.82626441638841   -5.56936145982493    5.08030709073965
C         5.10453993207250   -4.33623667483813    6.81036726915819
H         5.57594437003402   -5.11903709710141    7.38880197011582
C         4.92207847176451   -3.08057906485087    7.36328909558453
H         5.26585040635998   -2.88407937444102    8.36894961813241

