45
CSD_code = QISROZ | q = 0 | S = 0 | Stoichiometry = C15H27ClIrP | MND = 8
Ir       -3.47755004979085   -0.27431968230748   -3.12095798442772
Cl       -4.84924935889427   -1.89918218413003   -4.18141864472233
P        -1.85368875488296   -1.82365794818851   -3.56035176684655
C        -3.04039553434961    0.54026781611059   -4.94491141956640
C        -2.00679362387971    1.31214305385696   -5.22869082044935
C        -1.67364615114421   -2.44058850643722   -5.27196320648561
C        -0.10951322357562   -1.41793184381962   -3.15425389178101
C        -2.09899924363220   -3.38588882130003   -2.63922128164349
C        -2.86009305454559    1.10676043142937   -1.50297864360739
C        -3.36971420351201   -0.04930986524072   -0.78966821784756
C        -4.70777565059574   -0.21812564280467   -1.14561840055203
C        -5.07170276534561    0.84460322681016   -2.06293425302530
C        -3.95808732579427    1.71427984665249   -2.19291078297420
C        -1.55555245092420    1.78100427733343   -1.21364507954963
C        -2.60098186926526   -0.81350776837649    0.24134811479271
C        -5.67588098053261   -1.23855350647568   -0.64352944031066
C        -6.47690329503079    1.10612942515071   -2.50414676342120
C        -3.94396547453058    3.07349024501168   -2.81763509411614
H        -3.78371841850076    0.38499650956676   -5.72797565496094
H        -1.21481681495454    1.51287404915408   -4.52263547685755
H        -1.89599120931629    1.79520185892157   -6.19075041380667
H        -2.64195490700959   -2.80541537946923   -5.60679158274986
H        -1.36494999792156   -1.62018091473259   -5.91568833058717
H        -0.93751690083654   -3.24267686592117   -5.30590905750013
H         0.19234090326194   -0.55232629811998   -3.73805373735804
H         0.54269320517951   -2.25824239999663   -3.38520926498045
H        -0.02284623055722   -1.17600525687458   -2.09824302697092
H        -1.31998812151959   -4.10551476639200   -2.88717918043370
H        -3.07344410190788   -3.78359385015272   -2.91575119076420
H        -2.08702429092447   -3.18906296668866   -1.56991314816239
H        -0.77872236931626    1.05750622038282   -0.97471210527572
H        -1.22686554447018    2.37139236094813   -2.06588581514175
H        -1.66525580469097    2.45324548963297   -0.35959431989205
H        -1.56475659306028   -0.95917185687926   -0.06190587014533
H        -3.04638941257418   -1.78961050951090    0.42396897496332
H        -2.59671488048428   -0.26191737727279    1.18422696741310
H        -5.18694421901415   -1.96744671106973   -0.00101827355364
H        -6.13494611795538   -1.77034100277606   -1.47714111756922
H        -6.47157046620119   -0.75407564611752   -0.07506296542626
H        -7.06248793187954    1.50412935352673   -1.67215036746399
H        -6.50558161366800    1.82407320969619   -3.32050150373597
H        -6.94969322917849    0.18555351209667   -2.84189461775131
H        -4.06628742648823    3.83323846774325   -2.04249255822112
H        -3.00487268649377    3.25954521759626   -3.33469624778422
H        -4.75270180935868    3.18251299944451   -3.53585253871490

