61
CSD_code = QISSAO | q = 0 | S = 0 | Stoichiometry = C24H26N8S2Zn | MND = 4
Zn        4.54431095341886    4.64082914079443   21.55897075504758
C         6.33241971916807    6.17697421242207   25.55062378564233
H         7.21295317211381    6.49224623714081   24.99925381415071
H         6.51733871938692    5.18189945645882   25.95518040525574
H         6.13830376696438    6.85806465511142   26.37707807693753
C         5.17922351831605    6.12802017465538   24.62942200586333
C         3.14161405349586    6.06182073600487   23.88787773576427
C         1.66811764741231    6.01902871157546   23.80529402443025
H         1.39719631372948    5.71420451908092   22.79657855808787
H         1.24013858768516    6.99906491680362   24.01182359142780
H         1.27273474260199    5.31186029828149   24.53245481628499
C         3.38118231535640    6.26309533755997   26.35539052976219
C         3.62856343907878    5.23589315636746   27.25509303443834
H         4.17526340003858    4.36162327986677   26.93537247559735
C         3.15108867638434    5.33760528178190   28.54793426786234
H         3.34136362706789    4.53581410620392   29.24545669376332
C         2.42870887724541    6.45157146269092   28.96064621858405
C         2.19061933742477    7.46973930519650   28.04403149775277
H         1.63185486767214    8.34232787567366   28.34909066786610
C         2.66084494725856    7.38308189314334   26.74737427847665
H         2.48026819023310    8.18190926520192   26.04319698656708
C         1.93672693904664    6.56518327686824   30.36966627343866
H         1.77105221015765    5.58225940929801   30.80334249122120
H         1.01122515156577    7.13436310352156   30.41409963488513
H         2.67856743946217    7.08173731883235   30.97955910293779
C        -0.02592161207774    5.69674286389316   18.97825088725968
H        -0.14532415961709    6.56804272097069   19.61480018417853
H        -0.92536089271306    5.08574154132885   19.04788712296643
H         0.09760030650806    6.00946998345053   17.94290593794467
C         1.16085193769135    4.93525460949121   19.42401152008664
C         2.83376423573014    3.55986812232890   19.42449021903214
C         3.79157660159943    2.50959460274432   19.03095766724898
H         4.31549461805992    2.15763248901373   19.91601842214181
H         4.52580875038477    2.91213373763049   18.33387413523257
H         3.27242406780263    1.68435245820125   18.54570434956558
C         1.49268933201999    3.60368210202233   17.33369851005574
C         2.39825329948576    3.87049643763111   16.31641060127769
H         3.32647862131049    4.37659715615796   16.53708009799497
C         2.09283449229476    3.49495914372291   15.02174810293389
H         2.79883814154099    3.70550622487169   14.23278067140544
C         0.89544638839257    2.85511257705958   14.72360678859493
C         0.00094590769488    2.59734720438538   15.75715457971732
H        -0.93253905507701    2.09837758613514   15.54207960240779
C         0.29072278612729    2.96673035412450   17.05667594443668
H        -0.40356258074108    2.75307467475745   17.85594337958885
C         0.55937167597389    2.46792862090168   13.31756916342545
H        -0.10362070279589    3.21280990813710   12.87655911745223
H         0.04692445098018    1.50875227124644   13.29210786451477
H         1.45562912045467    2.40800428219033   12.70594992349752
C         5.04518557316156    2.89525671540515   23.79896494657624
C         5.55035696671707    5.36959918426270   18.92158383603844
N         3.95887881600562    5.98194942825118   22.87118229235590
N         5.23047385916404    6.02926345604464   23.33488916704275
N         3.86959744926166    6.16710182002076   25.03108948426776
N         2.81079573179733    4.19760846548592   20.56913269733029
N         1.77010799573410    5.05555908175937   20.56586143267666
N         1.79799034909461    3.99209287583366   18.65984731085290
N         4.89552651768471    3.18789912248956   22.66797408987185
N         5.50277854991729    5.19441782826196   20.08469347138388
S         5.22184342316970    2.48329284477072   25.31073673648570
S         5.60325842500664    5.57003037445771   17.35836801995594

