83
CSD_code = QISXIZ | q = 1 | S = 0 | Stoichiometry = C31H48IrOP2(1+) | MND = 4
Ir        5.96217439441599    2.56222571148312   11.77961692625638
P         6.13347751884006    4.30474083848463   10.12696393610723
P         5.27264294868537    1.55468705636390    9.71600046151824
O         4.99325331615332    0.36743098323521   13.59652071261350
C         6.75381910027634    3.48348947668610   13.35988694771718
C         6.06551293161342    3.86654488658995   14.56710594771442
C         4.66014370805839    3.96724672911384   14.58688501828177
C         3.98918174227739    4.34496064104576   15.72734802597829
C         4.69289154822570    4.59975588452983   16.89836823007222
C         6.07393106925435    4.47217667079698   16.91476453037152
C         6.75537554829237    4.11691211238012   15.76930212567454
C         8.16912779513613    3.80103335673797   13.29831420999792
C         9.09323157424219    2.83256242240812   12.87799300829433
C        10.44119429743091    3.12323986349147   12.82096835444192
C        10.89420466937781    4.39765810383874   13.13123937314066
C         9.99096479809301    5.37392001472231   13.52285090134878
C         8.64595351592618    5.07833661476128   13.62653110186826
C         5.41364694880696    1.18424018581582   12.90686307749742
C         5.48274392574609    3.16913676902022    8.76543088967591
C         4.75183025067919    5.59102048371202   10.38469441682081
C         3.47643546870022    4.78194869116940   10.63089169325111
C         5.04822878578170    6.36859840393909   11.67203722422122
C         4.49365400553434    6.54071052762360    9.21819316446599
C         7.65428015839056    5.20255016593204    9.39282241218629
C         8.88907352706400    4.31633274109211    9.58605779205513
C         7.50288240634218    5.52915542972522    7.90783239215000
C         7.91446380845677    6.48384513078536   10.18762439683946
C         6.59164725359933    0.38055212679263    9.02003295944876
C         6.36809266218662   -0.08576665862963    7.58472819817455
C         7.90648666795870    1.15757163058508    9.08050458229383
C         6.73364097201096   -0.80451112164134    9.98008715965095
C         3.54152955843739    0.87211972169840    9.29504488112895
C         3.13063035379023    1.11509497157941    7.84469187735056
C         3.49745254953141   -0.62287058090128    9.61489107339731
C         2.53416798906634    1.54563925128457   10.23252579591230
H         4.11121387279974    3.75797905099245   13.67859587147931
H         2.91348367179686    4.43164966552732   15.71669365058362
H         4.16462765814976    4.88132526782958   17.79601385500163
H         6.61996296378508    4.64735916472464   17.82902319630566
H         7.82703835246372    3.99226006141159   15.80352348486127
H         8.73589809045902    1.83538169808704   12.65234014062533
H        11.14292433333221    2.35818736764752   12.52585545052118
H        11.94630180827610    4.62740818707304   13.06982680439248
H        10.33905832200152    6.36735076917023   13.76152906293096
H         7.94388260949143    5.84128227836357   13.93164512585087
H         4.53798885802082    3.53289465104078    8.36322839109542
H         6.18037675487038    3.06041266111304    7.93641251684601
H         2.72156004048582    5.40640911032260   11.10478486704754
H         3.67664693774630    3.93383151764627   11.29120855725141
H         3.05619130521044    4.42551611725862    9.69449491947760
H         4.14227766952634    6.86739666138409   12.01213285325467
H         5.80273912266142    7.13424939967203   11.53627293440518
H         5.37527366861778    5.69284991504141   12.46175224052697
H         3.57746120305555    7.09663822282636    9.41408011497042
H         4.35636256087772    5.99801462676367    8.28377031418357
H         5.29003015720408    7.26730827021110    9.08883870896373
H         9.78776577072043    4.91319646161674    9.44088076413649
H         8.92762397724843    3.50850651150829    8.86553682039532
H         8.92793127970049    3.90481790578492   10.59247155923729
H         8.36862644892459    6.10659479275690    7.58754252948070
H         6.61596564722393    6.11868750814413    7.70057052215225
H         7.47263740798083    4.63097197889177    7.29482124847828
H         8.88574910459324    6.88766109308990    9.90551197044441
H         7.94141254429330    6.27568555975687   11.25596851799356
H         7.17815843894617    7.25319346631719    9.98063146476135
H         7.26459763174275   -0.59589018484699    7.23452680069362
H         6.18457303379984    0.75606928251871    6.91798227409850
H         5.54316968435724   -0.78661612566171    7.50024068884414
H         8.74926616526357    0.47399914307691    8.99744361246427
H         7.99781879512415    1.68742290237308   10.03101156875675
H         7.97960112049271    1.86060740951271    8.25555703375246
H         7.63862699441610   -1.35908793023170    9.73788970950103
H         5.90493874021557   -1.49969507979937    9.92302275167449
H         6.81962978104540   -0.45029607246676   11.00839820754970
H         2.15248376275843    0.66765800077903    7.67644163732218
H         3.82553874762809    0.66797525258036    7.14100670344446
H         3.04337877691390    2.17575966773816    7.61898777844829
H         2.46740482128437   -0.97070213371271    9.55439210960129
H         3.85042120797827   -0.80934600091530   10.62810973744019
H         4.07504779862955   -1.21342905760289    8.91144832998629
H         1.59477979016809    0.99676991709414   10.20951765436079
H         2.31586524862612    2.56324218751798    9.93151321686699
H         2.89551955074194    1.54254964385558   11.26133792974705

