84
CSD_code = QISXEV | q = 0 | S = 0 | Stoichiometry = C31H48ClIrOP2 | MND = 5
Ir        5.16307820152905    1.37475048149308   16.99380524027933
Cl        5.08651348467659    3.05839745244462   15.41264765288372
P         6.15675039309649   -0.39579633208969   18.22360239059497
P         7.27908573725131    2.20127019674341   17.67721538098883
O         3.07010140563114    1.08388408885896   19.01712968963677
C         3.41432940697490    1.03994786871394   17.87311485234375
C         3.06171180555425    0.88995239286211   16.51860707880555
C         2.98043146088850   -0.47836738134184   15.94937059012458
C         2.51853809242612   -1.54380110532730   16.72021948013912
C         2.41196419387681   -2.81218051506005   16.17813079629558
C         2.75166536375078   -3.03707580041960   14.85420119251388
C         3.20038756553617   -1.98287056939791   14.07425356018792
C         3.31747629699920   -0.71593434291668   14.61498445262074
C         2.19044594210247    1.94371020301655   15.95094005507412
C         2.15445511139719    3.21275948188775   16.53716147344607
C         1.32730852224665    4.20003241399523   16.04460045416760
C         0.50817182763046    3.94833606739075   14.95567819202659
C         0.51986800137400    2.69159284183350   14.37782455112885
C         1.34614518890877    1.69774697518407   14.86911620042285
C         6.82421866383401   -1.72731880997258   17.00945442358237
C         8.30119522494779   -2.08041383154287   17.20505057163670
C         6.62186593580979   -1.12971606140182   15.61128677908130
C         5.99787480884971   -3.01357752317202   17.04802882430153
C         5.76461609150630   -1.24734905005295   19.89210670897422
C         5.53120646709609   -0.16101198765325   20.94543954181018
C         4.44571170535835   -2.01321847458265   19.78331214088560
C         6.89192287450242   -2.15722876603306   20.37740150053396
C         8.85995753589121    2.55440053707568   16.66719134782720
C         8.81485304042092    1.63335192158277   15.44672826099674
C         8.80232808149209    3.98870428450881   16.14282987993581
C        10.16883313730104    2.30907193231812   17.41794160324078
C         7.06434643489282    3.58758579757454   18.96487661868726
C         8.31834282011075    3.95347350654050   19.75436969394469
C         6.48858127647955    4.81200371896584   18.24639656185589
C         5.99877317802220    3.10025747173758   19.94755648397106
C         7.67689350219212    0.63840769037381   18.63904420899694
H         2.22011167776305   -1.36842096239724   17.74281894708985
H         2.05036127419254   -3.62722931429619   16.78907760813343
H         2.66172779874319   -4.02663836624188   14.43097806831078
H         3.46380632943400   -2.15098136915681   13.03983378207226
H         3.67914359963155    0.10360567591892   14.01116782085667
H         2.79638777919006    3.42779836125276   17.38161908301855
H         1.32507676286401    5.17567853700942   16.50911492069984
H        -0.13299809771072    4.72418616389510   14.56366714389396
H        -0.12107032265767    2.47820302598029   13.53389769816458
H         1.32378627800782    0.72049190607910   14.41068631370461
H         8.53239497475772   -2.96331103074889   16.60984151280156
H         8.54011285343573   -2.30695093679617   18.24014698052178
H         8.95565782153969   -1.28356524786771   16.85953761169057
H         7.25212118744241   -1.64050141840625   14.88465869687870
H         6.85947086510103   -0.06806651229118   15.58663363299666
H         5.58692341262365   -1.24732542540921   15.30020322255870
H         6.25861767402099   -3.62189168072140   16.18164333186744
H         4.93577596514662   -2.78965059897975   16.98046016014488
H         6.19245478700119   -3.60922366744243   17.93543259324095
H         5.10259412616676   -0.61657567114997   21.83715909492445
H         4.82631454704293    0.58065987805475   20.58097275149944
H         6.45606739713073    0.32228598065501   21.24925537959136
H         4.20159973473405   -2.44961600963922   20.75147187655120
H         4.47409772933165   -2.81508118855823   19.05634358155782
H         3.64867009324285   -1.32453846895293   19.51706428981257
H         6.67311486354999   -2.48477489328669   21.39353271762043
H         7.84299823475136   -1.62707138403829   20.39791434689529
H         6.99565800889712   -3.04554886570320   19.76202051579092
H         9.64800811795030    1.85959163822136   14.78202699349631
H         7.89144005776748    1.79299051123402   14.89221983483493
H         8.89628860971492    0.58705798618113   15.73033099183661
H         9.52492895423102    4.11316318297704   15.33670071803055
H         9.04680649868632    4.71194650438860   16.91514289694963
H         7.81137887308379    4.19929320937417   15.74425915406955
H        10.99953685020313    2.59523932245870   16.77320599244159
H        10.30045275436182    1.25875036381906   17.66953313567278
H        10.23963567155639    2.89112935156270   18.32986168845817
H         8.03945617726652    4.61572626086419   20.57381374482875
H         9.04533003670893    4.48099651528936   19.14312871523843
H         8.78881428532570    3.07046604885162   20.18546119369003
H         5.99796725638813    5.46462183770365   18.96682235913694
H         5.74902722701124    4.50432546459099   17.50888604367073
H         7.25049239288999    5.39710836574292   17.74383413982249
H         5.62833124286950    3.93738802332017   20.53667613874934
H         6.39939981180489    2.36828486581489   20.63968258297178
H         5.15379474394779    2.66739022547872   19.41265975743569
H         7.74259780355290    0.83362971668040   19.70725244371875
H         8.60538649966920    0.17397731430028   18.31882935811750

