97
CSD_code = QISZOJ | q = 0 | S = 0 | Stoichiometry = C50H39Cl2NO2P2Ru | MND = 6
Ru       11.76541072169628    7.22970296256296   14.08109934392481
Cl       10.92985234838262    5.06396977271428   14.69960022164759
Cl       17.17834297104781   10.60074173552233   16.97828089135426
P        12.28892957565394    6.66800399865861   11.87841765827828
P        10.84071914825306    7.57055756580680   16.19666153056674
O        14.19856892129993    6.00516634351428   15.29137794239666
O         9.96351051820004    7.75489186630909   13.13776883851416
N        12.37882060803780    9.18574872857208   13.84310729524000
C        13.30265010393634    6.55478843402409   14.82972899828873
C        11.70533424272526   10.12892244706710   13.25747175541765
H        12.13787014075489   11.13302857297579   13.27987001394913
C         9.68537886745256    8.83204022866888   12.51292470819300
C         8.47815446072598    8.88098401882455   11.76236823856908
H         7.87584896333760    7.98385634319376   11.74530055784673
C         8.09774869806913   10.00020687616926   11.07927025001839
H         7.17863614489217    9.99659709409315   10.51048605273808
C         8.88612017547914   11.15735516448862   11.10974209490901
H         8.57508680047300   12.03781813600332   10.56876078743475
C        10.04700949985458   11.15735954599621   11.83211518162444
H        10.66490210798463   12.04500781070092   11.86405625785953
C        10.48718233699993   10.02114157669983   12.54005439691715
C        13.52811042570478    9.55308644361188   14.55483082980086
C        14.74230607807426    8.90064037299381   14.32829997529675
H        14.80425310067756    8.13218845985606   13.56860849917422
C        15.86349167761701    9.22545339848216   15.06440782668545
H        16.79581111716270    8.71237215520807   14.88959512815428
C        15.78392773660047   10.21370073517487   16.03541675560508
C        14.59818193063030   10.89667872919895   16.25142656524612
H        14.54563143364389   11.67001085941678   17.00158215212126
C        13.48102081203232   10.57706174315373   15.50305740537232
H        12.55244480248200   11.09961217362619   15.67851094345019
C        12.27262778232677    8.08224501655852   10.73140797874511
C        13.24952365683622    9.06844820400662   10.85811136975893
H        14.04917090602622    8.94200574370695   11.57594852307355
C        13.19832336411564   10.20744290139634   10.07686414277963
H        13.96397542602446   10.96328146834229   10.17887145922668
C        12.16256273733869   10.38364080076710    9.17385119283064
H        12.11758302947115   11.27803967069686    8.57045401901509
C        11.18223938386150    9.41370940536141    9.05120114674316
H        10.36907554295871    9.55161282537146    8.35423449983527
C        11.23317104468112    8.26891621625919    9.82549209895084
H        10.45911391306268    7.52056350964434    9.73205365740298
C        11.21089614079956    5.48080502516601   11.01208041582963
C         9.97577115738238    5.11256439012071   11.52842432384598
H         9.65169920579744    5.51385284328502   12.47675856958734
C         9.17522052322195    4.22161115699092   10.83383895113806
H         8.21812143781917    3.93173744932492   11.24191441027082
C         9.60074678350793    3.69870223605410    9.62535025489844
H         8.97595407924756    3.00163775971210    9.08598183888034
C        10.83271935058968    4.06714941388175    9.10564927163114
H        11.16660391311687    3.65948485991212    8.16235671011742
C        11.63767439329055    4.95379077796369    9.79356920115747
H        12.59926140562124    5.24162811691772    9.38973444285647
C        13.89519043050968    5.85062028653224   11.62064174324031
C        14.87752497313236    6.25283901452299   10.72524418536032
H        14.72666504637257    7.12430006982254   10.10322933825176
C        16.05238269468592    5.52638486178788   10.62324497059819
H        16.81649955789777    5.84228699507889    9.92749144822908
C        16.24798528823673    4.39956904778580   11.40335717273270
H        17.16806288131782    3.84009980869075   11.31998427581144
C        15.26201488774613    3.98644107528846   12.28674874801622
H        15.40963028926564    3.10387253973722   12.89079526071028
C        14.09002479277515    4.70840837488014   12.39583415315842
H        13.30768394441007    4.39630835191093   13.07920334847282
C        10.64828245636384    9.29537670514524   16.77769421203536
C         9.88171591857707   10.10262211701337   15.93920354654293
H         9.45567671447675    9.67462338830344   15.03995315789805
C         9.65622733499226   11.42905185709792   16.25108725742891
H         9.06718471615515   12.04646574137308   15.58831586123329
C        10.18841637042483   11.96116400330134   17.41573706831150
H        10.01964756650924   12.99897732199804   17.66296950461720
C        10.92742572569687   11.15697945704268   18.26720411518783
H        11.32763777155535   11.56643799400667   19.18347374490735
C        11.15796606219587    9.82762187553397   17.95477450261615
H        11.73150137282380    9.20945527344225   18.62998049425963
C         9.13367010036295    7.04961858450594   16.55631939713731
C         8.26071917703140    6.66841455770429   15.54705238861126
H         8.60908166268713    6.63070315177545   14.52521482654612
C         6.95472632007313    6.33025979702447   15.85709143482302
H         6.27797949833491    6.02753841284621   15.07140485226641
C         6.51657317026942    6.37594610468032   17.16904665662858
H         5.49904735138010    6.10479769212400   17.41049540406522
C         7.38204819227040    6.77479074241193   18.17649529473965
H         7.03813276073589    6.81839519668963   19.19990248622044
C         8.68482484385939    7.11937744379767   17.87389745414129
H         9.36162850242309    7.43942355167690   18.65554725641800
C        11.85013063940093    6.77552349084396   17.47527782743584
C        13.10278679973808    7.32620095666739   17.74507328718372
H        13.41426704243436    8.22624778353697   17.22631555237606
C        13.94919802525580    6.71411649031326   18.64875034520273
H        14.91720856569956    7.14646504965117   18.85613030467366
C        13.56105527285282    5.53861548485591   19.27303040463464
H        14.22613938594193    5.05686125328742   19.97456849041696
C        12.33203859455676    4.97152532044369   18.98160986729766
H        12.04064954486885    4.04246111601407   19.44909264800184
C        11.47575288067210    5.58311944843744   18.08248663588353
H        10.52770322575534    5.12812812583768   17.83378150072580

