107
CSD_code = QISZAU | q = 0 | S = 0 | Stoichiometry = C44H50N2O10Zn | MND = 4
C         2.92217346496482   13.28298882011827   11.81917467547444
H         2.83793431566028   13.27647601153323   12.91281801950699
C         3.61382441275526   14.39294890996634   11.27480868580519
C         4.13721202945306   15.34869766963166   12.17010463446198
H         4.02137409054070   15.17548128143660   13.23116580451663
C         4.76976482145963   16.47814962276511   11.73750604820389
H         5.16425564784191   17.20991875887982   12.42365335699005
C         4.89947345877899   16.69612046996518   10.35408304619561
C         4.42967810497138   15.78364498516049    9.44821687723613
H         4.53530565068702   15.94227322278901    8.38723216115449
C         3.77311310345871   14.59538875795366    9.86722597685803
C         5.16853738098947   18.59866502816152    8.93944945874779
C         6.06014777560804   19.75800455002447    8.73078615575634
C         7.19860054763659   19.98307570467541    9.50664469529404
H         7.45635319982547   19.28812173732240   10.29002474024538
C         7.98674563326103   21.08493561316115    9.27263822216373
H         8.86946114242523   21.27570466746809    9.86248750066942
C         7.66279241548814   21.99433802303373    8.25859193406394
C         6.52894120127471   21.76786943250793    7.47929579295790
H         6.25454716845591   22.44728511209933    6.68802592715733
C         5.74185288058595   20.65989824180160    7.71936721859508
H         4.86071379629115   20.47507274490662    7.12369662684704
C         8.24024588686942   24.01571210304658    7.12514291496635
H         7.25202871767409   24.46724596076953    7.28930464616648
H         8.25191397386470   23.54974100310956    6.13004263537713
C         9.32630124296683   25.08197473158259    7.21613803730198
H         9.29676961782069   25.52638850952676    8.21247323494661
H        10.29365755322843   24.59499926226912    7.09381899659104
C         9.13381710681711   26.16399673123475    6.15670743440867
H         8.12313506018559   26.57004370080198    6.24832147886478
H         9.22157785055867   25.71810515771415    5.16319727718850
C        10.13626218173329   27.31149694605723    6.28421105889349
H         9.84687626821642   28.10128260535196    5.58714990499194
H        10.08248790247347   27.72574762663528    7.29320384225389
C        11.57043658291862   26.89202694213903    5.98407756905856
H        12.22691068265652   27.75886978281084    6.00216645656131
H        11.63493368942793   26.43476048104208    4.99911467722172
H        11.93204892147716   26.17952155569969    6.72034869865659
C         2.01171271429823   10.84472193810469    6.66563770584473
H         1.53684074680003   10.81016060163233    5.67814524697999
C         2.75958820560940    9.68692737718695    7.02097922278686
C         2.74615145095285    8.59943132758715    6.12728147257640
H         2.20566222794332    8.70736941677741    5.19703830369451
C         3.36708662340386    7.41479867409861    6.41181843990474
H         3.34006037918103    6.57886793914769    5.73191095652584
C         4.04538602550809    7.28715850685050    7.63319660852925
C         4.12282020925133    8.33361971536784    8.51352716819007
H         4.65608581532214    8.23731126653170    9.44615789199978
C         3.48902388069578    9.57506081977509    8.24580089296103
C         4.51398240553633    5.45872992477136    9.07074784124332
C         5.27571022162502    4.19531501216442    9.13374061298660
C         5.17214256351466    3.41263607075723   10.28621626874894
H         4.54415189792517    3.76161646867569   11.09155294363680
C         5.85472136198007    2.22499060482530   10.38556542357371
H         5.78425350395424    1.60839533980493   11.26755958421920
C         6.66434987956379    1.78211834657792    9.33248887469731
C         6.77358185812086    2.56463944545751    8.18357109019245
H         7.39341558156501    2.25107292381409    7.35838141467854
C         6.08435368178546    3.75809454323851    8.08973616816817
H         6.17345242823675    4.35865338710561    7.19801296675989
C         8.11157501083971    0.06904563111106    8.50769933094680
H         8.94220208162621    0.75670110355591    8.29695943226285
H         7.52985176092999   -0.07162835610506    7.58624120884333
C         8.65097534413895   -1.27118191965983    8.99517949548126
H         9.20741400137767   -1.10781668342894    9.91950640715819
H         7.80650633911873   -1.92243740501363    9.22669195378468
C         9.54941906925486   -1.93130900677338    7.95356422238862
H        10.38772940162761   -1.26889639491300    7.72500956917120
H         8.98502887285644   -2.08071224963880    7.02995269785869
C        10.08739253425907   -3.27589850243375    8.43755301002013
H        10.65228106540803   -3.12653460792121    9.36007541700278
H         9.24924059186745   -3.93749270155962    8.66624993307383
C        10.98308858508771   -3.93431356756141    7.39557604124877
H        10.43205351191023   -4.10926805852031    6.47412006240275
H        11.35488281330563   -4.88907356369418    7.75932062684128
H        11.83570432046418   -3.29821471223360    7.16820760278331
C         1.63504360998737   11.33196620646955   11.92260960055047
H         0.78372051031925   11.82071552239809   12.41455584231240
H         2.26940745602196   10.87611095004202   12.69164940673202
C         1.10703767880386   10.24140289904321   10.99973073327856
H         1.93548302521547    9.63903211987940   10.61315145386174
H         0.41698565767848    9.58716155213448   11.55176251426013
C        -0.28786845787902   10.00863098705572    9.08999860711419
H        -0.75130011135631    9.21433389184615    9.69219370725851
H         0.38423756433240    9.54378850705664    8.35788086957646
C        -1.41294809751846   10.77148901066649    8.37307116718564
H        -2.09810069482093   10.03735359323231    7.93960011231401
H        -1.95467700725903   11.37195473342652    9.11670145072998
C        -0.39848460457770   12.80867534731344    7.60888832502875
H        -0.24515671710532   12.90629090945055    8.68635861673141
H        -1.05653072023917   13.61604943127296    7.26150194865279
C         0.95354721640196   12.91635072305554    6.89389967412564
H         0.79055500016470   12.80772084155201    5.81424891073815
H         1.39615834768440   13.88909805581585    7.11275850919227
N         2.36939637914604   12.31979528783554   11.16369917251230
N         1.82788600256529   11.88870465773903    7.39098427344691
O         3.34756885107637   13.78325655010181    8.97421165858575
O         4.18850191781875   18.37027614740197    8.27533878833265
O         5.57007634970802   17.85015094115827    9.98987624176520
O         8.50328110952687   23.04445160013972    8.12052494804398
O         3.59443439704014   10.51525122835737    9.11224330226024
O         3.81953145248908    5.87907983325025    9.96336633348457
O         4.66123196276263    6.06875248775960    7.87520252647758
O         7.28687777225447    0.59838199040160    9.52845311773386
O         0.42192166463923   10.88622366241109    9.94255805682400
O        -1.00926386451574   11.56739877560645    7.29187346473575
Zn        2.58666190172700   12.08292043532306    9.20351613386602

