45
CSD_code = QITFEG | q = 0 | S = 0 | Stoichiometry = C20H16N2NiO6 | MND = 6
Ni        7.36211542369593    0.50565957670484    5.68775296582089
O         4.72761765642882    3.30870065617018    5.85717430700567
O         6.08081193938766    1.69915452907069    5.15387341283316
O         8.84925860707328    1.73330078100147    4.23146638231033
H         9.37115626674639    2.28892139549190    4.81813691482456
H         8.17300535138451    2.28862448449596    3.82637394741951
N         7.55382430922228    1.79796039225711    7.29884672051625
C         5.65711809384874    2.53984678739490    6.01719296266060
C         6.47021126898616    2.55714827572596    7.30135211790076
C         6.09425854883148    3.37773161662869    8.37563505614250
H         5.18740619285363    3.95256257919324    8.27203746345673
C         6.88025115694152    3.40633857001739    9.49163954299965
H         6.62299971076109    4.00945206983021   10.35086274345357
C         8.06535753356469    2.64287875813181    9.51161530851775
C         8.95123173790743    2.66016507956697   10.60835943402807
H         8.69727228169918    3.26900671979970   11.46406620691890
C        10.10619685896844    1.93004516300535   10.58428315687144
H        10.78089547643755    1.94925081491534   11.42705572003462
C        10.42415351334695    1.15325222133276    9.45923599585373
H        11.34271326295748    0.58641693270557    9.44931654337264
C         9.58594231329554    1.10816853207188    8.37960104109422
H         9.81499374993696    0.50089653382967    7.51855240895018
C         8.37956127629448    1.83896063854336    8.37679264575563
O         9.99659717880914   -2.29741171329023    5.51813194117183
O         8.64353495951477   -0.68781317017885    6.22154544055050
O         5.87505185089773   -0.72175700874202    7.14422329167886
H         5.35203119818437   -1.27661266761573    6.55750626230030
H         6.55135520712396   -1.27795429165364    7.54841789560528
N         7.17037247505373   -0.78658893134271    4.07659428078065
C         9.06714577092631   -1.52848651087726    5.35817509685290
C         8.25397270461251   -1.54578319807740    4.07405500957262
C         8.62987931172860   -2.36637887331298    2.99976988188984
H         9.53672467996973   -2.94122477174710    3.10335065463884
C         7.84384053593241   -2.39500243064392    1.88380015086526
H         8.10103697654366   -2.99815572372832    1.02457859039856
C         6.65872882070683   -1.63154967187505    1.86386065171447
C         5.77279798834684   -1.64888411689608    0.76716581283362
H         6.02671217749701   -2.25776043325585   -0.08852431474268
C         4.61782441869119   -0.91877640780938    0.79128153864851
H         3.94307513634357   -0.93802208810646   -0.05145518348146
C         4.29992668014114   -0.14193937434771    1.91631557110594
H         3.38135668936955    0.42486585790552    1.92627985456331
C         5.13820698618750   -0.09680651212702    2.99589597649513
H         4.90919210874754    0.51051140363213    3.85692615072788
C         6.34458361410195   -0.82761247379695    2.99868244708848

