106
CSD_code = QITKUB | q = 0 | S = 0 | Stoichiometry = C53H41BFeN6O4 | MND = 5
Fe       -0.22236828380323    4.37527846115157    9.64325844895556
N        -0.65796806961166    7.41665626919345    9.24588178722585
N        -1.22335913156191    6.21286216280092    9.08180297842133
N         1.34774367208989    6.83826158704756    7.93227813098610
N         1.17557545167626    5.51763935026746    7.77258934713437
N         1.44929646183073    6.84812736273422   10.42810097870014
N         1.02978488324124    5.63342022894174   10.81331188595879
O        -1.74732767386278    4.80456527200586   11.20715655811360
O        -2.19366037778266    2.83035060130078   10.35883401186327
O        -4.51706375618723    2.61227932448339   11.47029217849583
H        -3.93096895462833    2.11552523583255   10.86887094815783
O         0.27237744133200    3.10598319775415    9.10549376157277
B         0.86742793868375    7.55764625713735    9.19842674131195
H         1.19514788591266    8.68873578084722    9.19140127124041
C        -1.59193882916620    8.38232382587029    9.16380468327373
C        -1.30507974102221    9.80652113919086    9.30512092329886
C        -1.85645436207682   10.71380448674077    8.40358763053941
H        -2.49385495054245   10.35303465394658    7.60947001450122
C        -1.57177259819231   12.06278552796911    8.50873323950386
H        -1.99809474570988   12.75776648127674    7.80008567147574
C        -0.73733878703830   12.52093209685510    9.51465779184543
H        -0.50782520871481   13.57344032470330    9.58967962740705
C        -0.20358085633290   11.62692653085607   10.42834613309823
H         0.44015061322953   11.98074413279471   11.21988499031400
C        -0.48935331408056   10.27843534105558   10.33124240487098
H        -0.08733454307296    9.58548571087553   11.05398776928919
C        -2.81501165640586    7.76635544025915    8.93217761909052
H        -3.76737577265760    8.24068079274723    8.81206777155073
C        -2.53958753197098    6.39817156747992    8.89075347580836
C        -3.47076723170407    5.30484932883237    8.64559292378554
C        -4.77061272282037    5.35988128075412    9.14510093358167
H        -5.08234755788804    6.21600397848138    9.72595735838221
C        -5.64515523862238    4.31247861286248    8.92567556650657
H        -6.64413495748342    4.35220016995440    9.33280822423563
C        -5.23684395615881    3.20653235518947    8.19863701554215
H        -5.91970987392194    2.38587685345444    8.03905900469998
C        -3.95224054711099    3.15307452090325    7.68273895907096
H        -3.63146495036209    2.29401458272371    7.11355058643442
C        -3.07247452863196    4.19589468404702    7.90164200039808
H        -2.07109953137707    4.16904919064603    7.49214840507849
C         2.06099273848507    7.34781706572612    6.89833670574797
C         2.38166797273338    8.76032365918335    6.71418340175629
C         3.67933446027027    9.13251272576089    6.37044033880747
H         4.43861534366473    8.37112868325155    6.26382387944580
C         3.99965785089471   10.46414628552952    6.18199685611663
H         5.01040569717792   10.74136513037852    5.91861483266226
C         3.02957482521286   11.44112414402845    6.33281928100976
H         3.28271554411394   12.48179255986862    6.19396008920354
C         1.73180464470335   11.07742975950933    6.65118464007302
H         0.96647791724951   11.83216540341616    6.75766057052726
C         1.40566219737350    9.74669940082931    6.83106137868234
H         0.38772600543638    9.46653101349630    7.05261003702659
C         2.38005076687887    6.29634652028732    6.05836850473268
H         2.91232148233115    6.34956735407997    5.13072771702620
C         1.78762110345431    5.16528695760118    6.64277854675537
C         1.80492788671442    3.80967834212027    6.10736249449252
C         2.92114236320288    3.35509988876310    5.40708056029790
H         3.78252421389681    3.99821239809725    5.29934982726276
C         2.93951571305500    2.08251034387329    4.86824052639554
H         3.81203038231395    1.73866959857147    4.33134470443998
C         1.84451872050968    1.24762656349937    5.01792506121289
H         1.86114373914393    0.25285109630392    4.59720103396488
C         0.72992594313007    1.69313228462382    5.70933390353937
H        -0.12570912911590    1.04549114256909    5.82987693215053
C         0.70626580326894    2.96656488969413    6.24568984032733
H        -0.16048715654906    3.32012280134998    6.78318005430422
C         2.44165404824158    7.27054410736782   11.23144356468383
C         3.08949971533143    8.57756628662907   11.12049823253272
C         3.08204470531001    9.43761860714167   12.21494433981759
H         2.60142815105603    9.12671490179511   13.13121345967435
C         3.66943109935117   10.68618819104779   12.12388968699992
H         3.65264659066105   11.35074364183034   12.97534639768489
C         4.27429048087713   11.08504247782892   10.94374715824952
H         4.72704454257306   12.06271718580112   10.87171710590089
C         4.30372676607957   10.22495438113319    9.85868957996843
H         4.77953720104044   10.52782435271032    8.93820390210443
C         3.71855554131458    8.97579950873359    9.94549334808869
H         3.75038241165046    8.30143963344523    9.10457414918752
C         2.68645543206323    6.26938292695913   12.16005462163912
H         3.41456677399838    6.27563260742884   12.94510176760359
C         1.78373806648041    5.24905453165759   11.85445009686730
C         1.69841810571559    3.94422206165822   12.50979839519058
C         2.87042344778334    3.22210944051174   12.72771317694686
H         3.81451849064792    3.62381944873810   12.38941333166442
C         2.82327304768593    1.99235775895283   13.35641979688842
H         3.73532628103502    1.43605822189302   13.51646770962490
C         1.61047010549075    1.47315089025596   13.77954483440071
H         1.57618737551271    0.51135424368364   14.26945305541646
C         0.44449291315127    2.19222369888614   13.57900947326041
H        -0.50245305374102    1.80061084468407   13.91804821692886
C         0.48644713924785    3.42356663816844   12.95035048477244
H        -0.41436457172942    4.00186985050016   12.82979573163706
C        -2.46490409438285    3.77169619952696   11.11175641270594
C        -3.73259632553106    3.64991909693166   11.97856699344144
H        -4.29367146464840    4.59174333279645   11.91693436674238
C        -3.27547906918976    3.42336013168837   13.40430706449413
C        -2.71372698467449    4.47066600704126   14.12438539011826
H        -2.62260365851690    5.44301523190272   13.66178834045424
C        -2.26397714279910    4.26416778678110   15.41564323657138
H        -1.82418797204567    5.08112790230742   15.96904454816648
C        -2.37928588107436    3.01400932605674   16.00146515453518
H        -2.03043900495322    2.85516703849641   17.01129067529388
C        -2.94355042699409    1.97043190568500   15.28833726887456
H        -3.03782085545877    0.99385205901548   15.74100484880728
C        -3.38441835228499    2.17145962642997   13.99153068020714
H        -3.82974071117779    1.36472720148148   13.42960193215970

