44
CSD_code = QITMOX | q = 0 | S = 0 | Stoichiometry = C19H16Cl4N2NiO2 | MND = 4
Ni        4.23261638764497    2.77170255228586   18.10163599730747
O         4.81200998319073    4.01768451706645   19.34876592137197
O         5.84415479544184    3.03633555852507   17.23556827242725
Cl        6.16138320530347    6.37979033497992   20.30648767585370
Cl        1.92019521473342    6.78827996821327   23.58512140320813
Cl        8.61618659316142    3.71943588684809   16.82356797574694
Cl        7.99526208125534    1.06066417907635   12.19250843426272
N         3.49364241427766    1.91783336699552   16.59583882003881
N         2.81222389015536    2.23943204672770   19.24116860848470
C         2.89128081180964    4.11828577891678   20.76321674572579
C         4.14191001078972    4.59748368339205   20.26091585965607
C         4.65296424818886    5.78296852849888   20.87873586392058
C         3.97739787645275    6.44160662801203   21.87086632880208
H         4.38902576583509    7.34057815577041   22.30108153202125
C         2.75121361227919    5.94091557117237   22.32764258915729
C         2.21933832021658    4.79732214626216   21.79644387225070
H         1.27748065216305    4.41381852018173   22.15743673310280
C         2.38192179836893    2.88691330729734   20.27380686125426
H         1.58059562559030    2.44192632409976   20.86805110162311
C         2.36029501578503    0.86713874087816   19.06718424647712
H         1.63631373357249    0.62298983220107   19.85869084076808
C         1.68142083192940    0.64196370331660   17.69872293116655
H         1.95734305464654   -0.34578635391842   17.32733822404401
H         0.59719141949691    0.66593171266865   17.81529547282026
C         2.05984241318898    1.69633885454013   16.65376113532726
H         1.57628729995420    2.64598576715157   16.90910209826738
H         1.68171081352611    1.37309319240943   15.67490405397577
C         4.10355212958216    1.61822837788817   15.49531703642237
H         3.51856590552270    1.17229049520523   14.68757100266727
C         5.47379332953334    1.84262133727994   15.20414575788564
C         6.27389821754717    2.58470467139245   16.12776034529141
C         7.62919411319077    2.82472006605761   15.73562015209060
C         8.14269070799515    2.35910435741169   14.55511947250613
H         9.17179118021583    2.55311660936239   14.29827150894023
C         7.32409020586809    1.63332600999535   13.67951545262957
C         6.01491969662223    1.38288953124563   13.98824667731616
H         5.39002418421947    0.82662470959620   13.30666783884948
C         3.58002050561795   -0.05994252603697   19.24425070934834
H         3.26519906333274   -1.08798853106795   19.05502639203813
H         4.34196699777182    0.21703955534715   18.50258394065127
C         4.18448142459335    0.04151483670107   20.64007681769906
H         4.57158783012923    1.04341905851951   20.81662159416236
H         5.00801671086084   -0.66015193662085   20.74011656056059
H         3.44229992843850   -0.18884912584663   21.40222914188020

