51
CSD_code = QITREQ | q = 0 | S = 0 | Stoichiometry = C16H29Cl2N3Ti | MND = 5
Ti       10.11002959587830    4.49096283342829    3.04622239211241
Cl        8.78818799367510    2.71890217736914    2.66857362890219
Cl       10.09125950260152    4.22210651791807    5.24085422614631
N        11.51922438750979    3.97358115756021    2.24025013771176
N        10.90228849530261    6.54118688621973    3.43224363709460
N         8.92059737864483    5.71508950580987    1.67772937868725
C        12.57783842366017    3.15777863724628    2.29193615746291
C        13.24461663343948    2.62768246382539    1.14831168206848
C        14.35414356499470    1.82538373550341    1.34868560425375
H        14.87812132056709    1.41426065176228    0.50032951582844
C        14.83097521404693    1.51394659055460    2.61244573892706
H        15.70184841950206    0.88423917605931    2.71944550487723
C        14.17406812085521    2.00246242284182    3.73019004487391
H        14.52351091813418    1.75147920872012    4.72203407754063
C        13.07329422190504    2.81024335621075    3.57289329161997
H        12.53599538665386    3.20100267535711    4.43426870618439
C        12.70069114597099    2.91729826118764   -0.24413172194368
C        13.52896728043090    2.28538850538761   -1.36730865526897
H        13.55020655516174    1.20238397456355   -1.27799255612799
H        14.54908080795534    2.66300182622310   -1.36628337956706
H        13.07767011494846    2.53361495965579   -2.32661592630215
C        11.27531321122201    2.35158059745007   -0.32633896525566
H        10.67544180680074    2.71593567060769    0.50889438709423
H        11.30785516768825    1.26579671442626   -0.27169257621956
H        10.80096215721986    2.63673431090478   -1.26436730565071
C        12.68411593496180    4.43563563290945   -0.47115108333442
H        12.10628341056883    4.90978192968599    0.32207559565136
H        12.24044888000254    4.67414025366309   -1.43687970057168
H        13.69917465087802    4.82820765136641   -0.44875401053383
C        10.81487643162059    7.21635446348558    2.13738970852089
H        11.50804154235077    6.71483544142993    1.45324980486174
H        11.10491698193582    8.27825182124789    2.21944885297598
C         9.39252594402641    7.10670132184900    1.57957997530367
H         8.72393183896810    7.76982738451280    2.13924177473207
H         9.38571837834919    7.44945931619814    0.53687611122823
C        12.30555959288198    6.40881291206325    3.83405382123761
H        12.77235439299194    7.39722920032965    3.95237633719359
H        12.85279414345843    5.83105359338119    3.08803353935780
H        12.35091564747631    5.87229335969573    4.78256051947518
C        10.22105218130112    7.31709955844502    4.46939745529854
H        10.68480242460187    8.30824443841904    4.58117595956641
H        10.29403707110434    6.78046685451322    5.41564769069837
H         9.16481730691506    7.45492387822512    4.24013622682404
C         7.58655731926189    5.65254381706480    2.28339376368200
H         6.86505339546694    6.25982345728713    1.71644430328994
H         7.61486460792781    6.00700789033112    3.31847816330831
H         7.24567210316292    4.61370614988966    2.28814068155724
C         8.87004176735212    5.09398059169325    0.35133474019285
H         8.14365069807441    5.60936228555166   -0.29396248566830
H         8.57782191487570    4.04744696473223    0.45846075940551
H         9.85708361472461    5.13056701522880   -0.10922552931045

