62
CSD_code = QITRER | q = 0 | S = 0 | Stoichiometry = C19H29BIMoN7O4 | MND = 6
Mo       13.48921661693972    4.90995305476334   -3.74058948297810
I        12.31965524828630    6.02800849219233   -5.97206308614817
N        14.78713310516804    6.68047769001661   -3.65307239371285
N        14.81149317538394    7.43090272851373   -2.53016256840526
N        14.44423892045134    5.59113775038210   -0.91903725802110
O        14.94168774054939    4.09895360644313   -4.57044587789574
C        15.64163081667852    8.48081454689779   -2.68720519077497
N        12.48457232307279    3.49718929627016   -3.72771073658697
C        14.99633265841186    5.14513818563181    0.22095780511324
N        12.07351672846947    6.03100638057602   -2.54501367269898
N        12.52540233920289    6.94884580918631   -1.65822054431437
C        15.61173559485101    7.25291420170738   -4.53095346358223
O        11.79204679447614    2.51812446335695   -3.67449143061939
C        10.33299563931847    7.11673254611405   -1.67272905367880
H         9.32920511041483    7.42737614121685   -1.46813600201659
C        16.17321908755146    8.39813646325057   -3.95768055050730
H        16.86946707937657    9.07013793729889   -4.41603292229555
N        14.26205088394282    4.56808636824079   -1.77634483944606
C        14.70568295638252    3.45619102739649   -1.18364785180525
O        15.71186227531036    3.76920565230593   -7.38152358565973
C         9.83291891637894    5.28628491103911   -3.39570136916293
H         9.69895692124730    5.74203788268331   -4.37782815180572
H         8.85826200416138    5.22193693099103   -2.91740886358292
H        10.22456925418649    4.28279613256486   -3.53693690163254
B        14.01341949829952    7.01986252529023   -1.29645929719690
C        15.18310033101411    3.77994391709468    0.08558403820693
H        15.60323809681395    3.10919931737709    0.80662165254913
C        11.49427211336312    7.61972497076288   -1.11616384471771
C        14.80476362898973    2.93256455069459   -6.67661099898527
H        14.85163444213246    1.91815461097056   -7.08484378944836
H        13.81406421332965    3.36843098643434   -6.83454933755105
C        15.32174262318691    6.00829100209006    1.38468091915572
H        16.01993031006630    6.79304398876735    1.09959927572791
H        15.77122609214581    5.40412338306595    2.16775949992407
H        14.42301713642768    6.48098487545321    1.77651770009105
O        17.25512436457914    2.14167740481219   -7.40450050550893
C        15.89268708253472    9.50953713091442   -1.64517336440315
H        14.96584829107470   10.00370278247013   -1.35940518102084
H        16.58152019489468   10.25417521006271   -2.03459814077923
H        16.32705222185301    9.06172275369288   -0.75277831696463
C        14.68881120011635    2.11256825838683   -1.81386422633945
H        13.74159619457088    1.93102059708128   -2.31713106792082
H        14.83318193400313    1.35105218170859   -1.05126820817828
H        15.49557792606570    2.02708387071076   -2.54243668360540
C        16.91135804089718    3.25945886995080   -7.68578747028190
C        15.87601918942736    6.75794313146275   -5.90632787139418
H        15.71380159174688    5.68546476588962   -5.97894694666018
H        16.90430604005988    6.98651485556108   -6.18078939159169
H        15.21721755834455    7.25561143863231   -6.61906652282268
C        17.75259983613577    4.27485202564340   -8.41188613963024
H        18.33386591049426    3.77910265642860   -9.18402704502106
H        18.44324575392797    4.72660015505905   -7.70217529702596
H        17.12005718929607    5.04691679915337   -8.83781641928433
C        15.12004608070476    2.87593947602393   -5.17140473560928
H        14.43419865617453    2.12577886875134   -4.73899520130295
H        16.16368465039725    2.54067052180779   -5.04756220814354
C        10.73514891006889    6.11707429216252   -2.55904710929439
C        11.63939002937736    8.70104474113453   -0.10852475932323
H        12.07970051932454    8.31803408560392    0.81054049667730
H        10.66116341014587    9.11593330982982    0.11750765261865
H        12.28073102196722    9.49476088664165   -0.48661147626449
H        14.19600552593223    7.76234660325674   -0.40158168645283

