38
CSD_code = QITRUH | q = 0 | S = 0 | Stoichiometry = C13H13N5O6Zn | MND = 5
Zn        5.65800680740087    1.68902690209078    0.93052503768929
O         6.48363353808390    0.40953686604232    2.25277074292848
O         4.73670471907484    1.33287108267300    3.02804135158717
O         5.79546257116126   -0.09285149125013    4.20743049999403
O         7.23247396079154    1.49301429775714   -0.33366994463091
O         5.62523064583245    2.54574901819576   -1.23632216521583
O         7.41069094327668    2.18168727444189   -2.34385335946809
N         6.25491050854323    3.50100364689310    1.65343794273650
N         3.88019884415645    2.70759656747092    0.87008203425400
N         4.40646282106906    0.28285637071904    0.09443865320343
N         5.66811762522725    0.53712736376137    3.19405125133330
N         6.76668751651268    2.08205358937738   -1.33554531924573
C         7.51051364915301    3.81020091510305    1.95442326462705
H         8.23377355578621    3.01962866669217    1.80986033358026
C         7.87282937604105    5.06241096368699    2.41750757193679
H         8.90209724211044    5.27970465819133    2.65212135820253
C         6.88314796868830    6.02285789654367    2.56796756682607
H         7.12511384548600    7.01283293279813    2.92449294884137
C         5.57729650664287    5.69172301034260    2.25162619078982
H         4.78180349574738    6.41383331818176    2.35590622533714
C         5.29777468067023    4.40896710651313    1.79357871461252
C         3.88313774597079    4.00406394436261    1.45244564994450
H         3.29963127864439    3.99927674682421    2.38356031557872
H         3.44911545304811    4.75151331855866    0.77610356519759
C         2.87964404899783    2.08408851469634    0.41333271604438
C         3.17386453326015    0.74373059778067   -0.13542792805251
C         2.25282074644104   -0.00510903202022   -0.86159301896745
H         1.26432848962631    0.37533414404537   -1.06111130039566
C         2.63007071808533   -1.24826154801146   -1.34697341310317
H         1.93287545115644   -1.84168659248728   -1.91938065777808
C         3.90833170878563   -1.71272136990998   -1.08850018697772
H         4.23790112861994   -2.67485937455945   -1.44562640204204
C         4.76857851172522   -0.90262106267705   -0.35888659077448
H         5.78079477097359   -1.20491469925578   -0.12706312004556
C         1.47100163972275    2.58804677663858    0.37936562333889
H         1.35510108888177    3.46181477011660    1.01385993070159
H         0.78374954309341    1.81654183910731    0.71816779824350
H         1.20712232151141    2.86273207056490   -0.64144388083225

