38
CSD_code = QITSAO | q = 0 | S = 0 | Stoichiometry = C12H13CdN5O7 | MND = 7
Cd       -0.23097592702286    8.77590392624797    1.73728569908617
O         0.00029859766752    8.95155848133581   -0.93024700215147
O         0.57163408069978    7.96240491017537    3.66123733307683
O        -1.06969002446330    9.30799912850158    3.57936078319205
O        -1.10005830608196    7.67454157876590    4.93242033182838
O        -2.08267870349803    9.56087795442172    0.89513741172853
O        -0.47075360163401   10.89459533880320    1.29027094836279
O        -2.46173181376369   11.63543112916227    1.17225436475099
N         2.00703262017701    9.23806421451596    1.53267219119022
N         0.82662933017211    6.86528914260497    1.09074370665671
N        -1.63641803881533    6.91471830033075    2.07891897377414
N        -0.54300959524209    8.30447939465725    4.06984358007345
N        -1.69223892134554   10.71731513270598    1.14488983829053
C         2.52127967582199   10.31496819749868    2.11008163608117
H         1.82602827062516   11.12350608744419    2.29902306446104
C         3.86289980775468   10.41444363919208    2.44479528814498
H         4.24373710528517   11.30549862164695    2.91761823796029
C         4.69491658498732    9.34277635889185    2.16396220206783
H         5.74498789819803    9.37715817469362    2.41389087778228
C         4.15509708796450    8.21880100176152    1.56021618300873
H         4.77365950135593    7.36463250715678    1.33024478419981
C         2.79875306479945    8.20618055425483    1.26271549313452
C         2.15365561540357    7.01005436834085    0.59655994191499
H         2.07167661734604    7.23587005953588   -0.47490938797519
H         2.76822277855975    6.10844076328025    0.73576255718549
C         0.36909733520052    5.77739236692198    1.53273486476399
H         0.93808345780182    4.84060623837322    1.53557301265397
C        -0.97539281115065    5.75277857121431    2.10224300746209
C        -1.51333862273679    4.60671617406471    2.67953414430472
H        -0.95211899332088    3.68469163962001    2.68574344389021
C        -2.76844808067270    4.68485498423878    3.26350640910911
H        -3.20393846363188    3.81887077688616    3.73921088214377
C        -3.44519746987100    5.89182819929966    3.23320661141753
H        -4.41777364655613    5.99698662520692    3.68569204848752
C        -2.83658772666262    6.98361675242290    2.62253781825310
H        -3.32157871337564    7.95015041403928    2.57360447069239
H        -0.96149134362396    8.92962903649215   -1.00750362889552
H         0.24243137364499    9.88406925531596   -0.89223212210450

