41
CSD_code = QITSER | q = 0 | S = 0 | Stoichiometry = C9H17B11MoO3 | MND = 9
Mo        2.93778117049278    1.16763368116228    2.83394164500929
O         5.72593314833156   -0.09786124366634    3.27899474593743
O         5.15460492143442    3.24944440119740    2.27980316978515
O         2.99489179196097    1.90800658864269   -0.16896721841441
B         3.46795914607260   -3.68971090730415    0.15890600640492
H         4.29339726460642   -4.35970966996272   -0.34659503980680
B         2.66494727128583   -4.27820692881526    1.63309943095670
H         2.96847673925304   -5.32438866065740    2.08042424634256
B         0.94050579070175   -3.85317145271445    1.52648544919571
H         0.13146552266836   -4.62158100361684    1.90472646475612
B         0.68057349700583   -3.00394511770174   -0.01598236332279
H        -0.29779830318643   -3.22622340119285   -0.63301109916890
B         2.24309005673333   -2.90157991241419   -0.85823942105615
H         2.27283871957526   -3.06019420325691   -2.02436783890687
B         2.02972736250394   -2.90056068887624    2.53693969655059
H         1.96520768838366   -2.87548657660275    3.71722459392231
B         0.77687574490460   -2.09724178671593    1.49572188863888
H        -0.14748362660132   -1.52755335158714    1.96420626121879
B         1.59828653894043   -1.49752444542934   -0.00022397606696
H         1.23734916135234   -0.51026858248749   -0.53712803985560
B         3.35299421486085   -1.92803682941199    0.11081272750567
H         4.18403816685001   -1.21882991752185   -0.33862476803799
B         3.61960116222321   -2.79604740360161    1.67533051861981
H         4.63020865574553   -2.68875381318704    2.27347700876063
B         2.42398345741293   -1.54686243837901    1.52541620836075
H         2.69740005034732   -0.34862808902387    2.16158620456302
C         1.85249542064976   -4.22846997569128    0.13757783646684
H         1.64769290488055   -5.17456402700857   -0.34756926849708
C         4.67886236315545    0.31811195914224    3.07411651663620
C         4.32345880891233    2.48787419649897    2.49815469017926
C         2.97741267527436    1.56410714296304    0.92249618176785
C         2.14806386082903    0.96036209784305    5.03363570733959
H         2.59753574037377    0.48199826250547    5.89581611224797
C         2.24115030449101    2.33070217155385    4.70850421335019
H         2.77581637878431    3.08094174826557    5.27916058056586
C         1.32977053768535    2.59939570028185    3.64914667216836
H         1.05191258185488    3.58653502940455    3.29851009082907
C         0.69055736214948    1.38780854043190    3.31236978217174
H        -0.17229272499840    1.28296178277222    2.66518290526369
C         1.19393281466379    0.37686474933931    4.17420800425673
H         0.79067565743445   -0.62404762518302    4.26723347336305

