44
CSD_code = QITSES | q = 0 | S = 0 | Stoichiometry = C14H17CdN5O7 | MND = 7
Cd        5.39628698707880   13.27320701982539    5.52484422202830
O         4.02444084153601   11.75906377643904    6.29041749059617
O         5.52036782857950   11.22071119426940    4.87519306631729
O         4.41663738724775    9.70880185883638    5.88845905773695
O         7.53230636222478   13.73382197584227    5.21138134725966
O         7.97144066351565   14.60979390110193    7.08267036167681
O         6.84149463722298   12.82235783406427    7.00025882916926
O         2.80100078872241   14.03167299996130    5.08720109109731
N         5.23617265487561   13.84761936796084    3.37531430488059
N         5.57794160423804   15.51044241945460    5.46965248933993
N         4.73711453578543   14.30526730636891    7.64018722244168
N         4.66381437804826   10.86829435251403    5.69763196735545
N         7.45368093733869   13.72705981442286    6.43505757603901
C         4.92665548810025   12.99803416759444    2.40397068029915
H         4.79152712918427   11.96611015062845    2.70045939219319
C         4.80094488095331   13.38436096475015    1.08039180304398
H         4.55093723093777   12.66090991480596    0.32098086170151
C         5.00723987618758   14.71760708019440    0.75965472029684
H         4.91552295809843   15.06257540311868   -0.25952155683806
C         5.34050151564792   15.59798624408696    1.77257670601587
H         5.51813419205969   16.64158917993501    1.56030536308041
C         5.45149971221383   15.12122159250415    3.07630107281541
C         5.87446242111124   16.05821554969191    4.18046684964215
H         6.95988753466587   16.20729485856205    4.08007653369033
H         5.38097882012741   17.02906025640361    4.03696340664344
C         5.84302955379316   16.11413110502631    6.55714542459831
C         5.48727912324094   15.39908016311761    7.80282423564940
C         5.91780365112476   15.81395217928468    9.06162571478730
H         6.55600171855270   16.67391068715037    9.17460734253804
C         5.55648662756227   15.06646039028534   10.16974420655119
H         5.89601078844621   15.35451277699204   11.15360086391980
C         4.76449756028208   13.94445960146970    9.99364921436261
H         4.46205605937820   13.33646176734241   10.83121578014043
C         4.38327032109990   13.60366709002943    8.70340953678569
H         3.78381874193646   12.72482834065691    8.50744531567698
C         6.49401250108931   17.45767411964243    6.67114727888437
H         6.41696874775308   18.02024331066778    5.74520051871928
H         7.54898731619795   17.29692707559462    6.89350481658627
H         6.05162401594039   18.03840389449824    7.47585130772334
C         1.92403310826563   13.28811133508709    4.26490831086341
H         2.07115797214578   13.63044572046224    3.24161943518782
H         0.88130354498701   13.46229675922433    4.55061703295159
H         2.13215413452923   12.21664850162193    4.31760433677113
H         2.72731314798304   13.67710599851506    5.98278446875337

