42
CSD_code = QITXIC | q = 0 | S = 0 | Stoichiometry = C18H14MoN2O7 | MND = 7
Mo        4.74181954297516    2.38234223429984    4.38688867070598
O         4.01269959177341    0.71544307023611    5.51737266727534
O         4.57837889365600    3.32783311371116    5.72968221375400
O         6.41932887301680    1.72178420919257    4.62503049301448
O         6.41315561416142    2.76506791527117    3.73165804382546
O         3.00234152866556    2.45604371778793    3.77255251628263
O         3.82436753041021    3.30036749204163    3.05931056367821
O         4.79072683373817    0.76028243065459    2.85266199914568
N         3.54531142984164    1.20138966008544    6.62855276489980
N         4.01019688357922    0.98497838132124    1.84983702312238
C         2.27647751765782    1.56123747906799    6.70178393866278
H         1.71489272552769    1.48203224334193    5.77912733647393
C         1.72919024269026    2.07072831056320    7.87755357219661
H         0.69067614193144    2.35981779494228    7.88390497766956
C         2.51625169199340    2.21232451388469    8.98960884157897
H         2.12022219375235    2.61588792015086    9.90861523754751
C         3.87535593933737    1.84542816352612    8.92153140782549
C         4.76344693053235    1.98801157963334   10.00845326520754
H         4.38137817350060    2.38070120190343   10.93871067035070
C         6.08259607360010    1.65147625420384    9.87713926428743
H         6.75819007770047    1.77591375129494   10.70991253774085
C         6.57453638235211    1.15560420317798    8.65975613024817
H         7.62155938653873    0.91224473460654    8.57002252478671
C         5.74237176121831    0.98707951072693    7.58406848957095
H         6.11083318459969    0.62576071274363    6.63227668082331
C         4.38493188827100    1.32939803052434    7.70386382628746
C         2.75628026869854    0.56208156471033    1.89681336852185
H         2.47883037238871    0.03187482542587    2.79787047780889
C         1.86248655011418    0.80452300714750    0.85524667383434
H         0.84968926115852    0.44617974813528    0.94741667681992
C         2.27501328347686    1.49884276536650   -0.24942463301359
H         1.60021114915343    1.70919115598782   -1.06461498673317
C         3.60613193550475    1.96064641900536   -0.31321793617011
C         4.11018508180897    2.69638365049770   -1.40503513344611
H         3.45207539402859    2.90046192636928   -2.23652309783718
C         5.40090301649445    3.15044289572958   -1.40385508720218
H         5.77454941256315    3.72005856395757   -2.24152387977096
C         6.24592143648353    2.89122719671906   -0.31505134316094
H         7.25651569945314    3.26839111025650   -0.32379998782277
C         5.79867830313873    2.16870423141592    0.75987207803461
H         6.43290582924482    1.97789612701192    1.61546615524749
C         4.47688597329084    1.69551618337922    0.77158499791364

