99
CSD_code = QITYEY | q = 0 | S = 0 | Stoichiometry = C48H36N6O8Zn | MND = 4
Zn       15.73499856533809   -1.87587733375872   -4.62157736909294
O        15.89876827875374   -3.28693384186114   -3.16075207456653
O        17.64807070583670   -2.20922937027596   -3.89980381777194
O        22.81174365608686  -10.13401664592696    2.60808168300454
O        24.08394565321294  -10.13763443210756    0.77771554183350
H        24.58956015132727  -10.78284961558199    1.29551144118365
N        16.29666514666566   -0.42566791427216   -6.04477146046078
N        17.36803986902914    1.88863323580992   -9.33642387045273
H        16.63218503701276    1.98941361785505  -10.02252010038867
N        20.88604759843793    3.88105044639369  -10.37568271365310
C        15.38393899380559    0.12551435169486   -6.83783379921418
H        14.35414217803600   -0.06669331950143   -6.57525834839377
C        15.70604243491684    0.89331384503034   -7.93427701913117
H        14.92712100832746    1.31406862955969   -8.55252834619859
C        17.05363548696331    1.12851834707628   -8.23972423097573
C        18.00478842761754    0.51357645908340   -7.41797505834947
H        19.05725784465982    0.59208394074009   -7.63454027237931
C        17.57708481579919   -0.24477533032167   -6.34854802329371
H        18.28101477645639   -0.74401659116890   -5.70066505050057
C        19.99876328178819    3.50991424049494  -11.28356554052742
H        20.24295042757611    3.76129461658176  -12.30699334593772
C        18.82657130908528    2.84315375212277  -10.98095368882328
H        18.13215927749301    2.56549691007275  -11.75994405960042
C        18.55570250409970    2.52852931640309   -9.64670684296744
C        19.47800155386037    2.94555489775693   -8.68563879790665
H        19.29795923379846    2.79104553409295   -7.63456362521451
C        20.61673854469453    3.60746431700908   -9.11105446880162
H        21.35263079342915    3.94579240602866   -8.39370746009890
C        17.13943241568072   -3.14032823401323   -3.22877809128638
C        18.02649474554517   -4.08273383267600   -2.49054251492045
C        19.40902775875286   -3.94885671680692   -2.55711953227262
H        19.82448462044632   -3.13484658578695   -3.13153307219651
C        20.22558644698528   -4.85093345690352   -1.90576774620956
H        21.29913619757438   -4.73626791534838   -1.94968838912882
C        19.67725537749819   -5.90060201943494   -1.16889673220737
C        18.28936476254207   -6.02137616928690   -1.09755534550715
H        17.85516878934080   -6.84321875533472   -0.54685852006437
C        17.47208901352148   -5.12525058763444   -1.75550813767404
H        16.39733205182872   -5.21799185365779   -1.72250334580883
C        23.02517549290237   -9.71993989970788    1.49446557717753
C        22.18649971877649   -8.73379536805316    0.78688511583224
C        21.04958985721489   -8.24215579857085    1.42728307901093
H        20.82392644277500   -8.59568074325434    2.42206869409433
C        20.23816181403376   -7.32512903919157    0.79462947118088
H        19.36655005158926   -6.93734634373198    1.30069096293280
C        20.54485002873471   -6.87178097196000   -0.48920428031270
C        21.68716478958907   -7.36481440321339   -1.12115002559268
H        21.92234111607982   -7.03490041276412   -2.12222710910120
C        22.49934814564561   -8.28753905824441   -0.49558773236124
H        23.37666579555818   -8.67152584173972   -0.99228494203112
O        15.57184003748805   -3.28675527228669   -6.08320349012775
O        13.82250933611999   -2.20976721640706   -5.34314049236327
O         8.66127747912889  -10.13601157884594  -11.85156056889850
O         7.38927962840191  -10.14062858540506  -10.02105570641803
H         6.88422515888479  -10.78638309211322  -10.53872708271221
N        15.17399776410103   -0.42574663482463   -3.19813985810381
N        14.10525683788353    1.88987902059177    0.09343433156576
H        14.84201170427667    1.99154036986315    0.77843901128070
N        10.58811231305350    3.88191401364611    1.13634431773438
C        16.08733206128834    0.12623396466279   -2.40633129329232
H        17.11692530059702   -0.06575645295130   -2.66984788005520
C        15.76605701945895    0.89444751491991   -1.30994551969707
H        16.54545686905431    1.31584008268111   -0.69272959184834
C        14.41868722469703    1.12924029899818   -1.00317475892359
C        13.46692847090844    0.51339386697631   -1.82354845097295
H        12.41465751416307    0.59150637584462   -1.60589262711386
C        13.89382801414437   -0.24530476097613   -2.89306254173937
H        13.18943559857099   -0.74510936689526   -3.54001646484424
C        11.47706662153382    3.51210955512505    2.04313827123440
H        11.23448868418271    3.76447393647715    3.06670622536323
C        12.64901711516755    2.84550717990192    1.73926915093983
H        13.34483384668338    2.56894606123738    2.51739832046237
C        12.91781365090496    2.52959392597641    0.40490098686004
C        11.99375393838281    2.94524687317076   -0.55506346024919
H        12.17211396153463    2.78978660261484   -1.60628097815888
C        10.85543969348024    3.60711166333590   -0.12843637078808
H        10.11821551219850    3.94437979790465   -0.84491429379426
C        14.33119132913183   -3.14040196580523   -6.01484897282881
C        13.44410941897990   -4.08289602910132   -6.75296229762449
C        12.06156424554006   -3.94917391274022   -6.68633091407431
H        11.64604491712240   -3.13522807181096   -6.11187109762316
C        11.24506730232367   -4.85125949196788   -7.33776848209502
H        10.17150708269230   -4.73670595233148   -7.29379381175371
C        11.79348208678222   -5.90078790539975   -8.07476863046723
C        13.18138554898694   -6.02143837042766   -8.14611708144009
H        13.61563366054311   -6.84322860772804   -8.69685091228976
C        13.99859124269299   -5.12532112391385   -7.48807702804624
H        15.07335529181484   -5.21795676164242   -7.52113197998426
C         8.44757499410339   -9.72201314963952  -10.73796580166682
C         9.28549137228029   -8.73511075740792  -10.03053735242271
C        10.42207243855583   -8.24279134265873  -10.67099767586722
H        10.64792454607072   -8.59622417521524  -11.66577303604925
C        11.23299048199597   -7.32529362849659  -10.03838078492592
H        12.10436485079595   -6.93701950856979  -10.54447357623889
C        10.92611828565352   -6.87213863585890   -8.75452073951424
C         9.78401550221592   -7.36568536201673   -8.12259754732996
H         9.54860831628690   -7.03579286667080   -7.12156676422926
C         8.97234153419124   -8.28889167508690   -8.74812525181439
H         8.09523120799051   -8.67333931118532   -8.25141611222357

