30
CSD_code = QITZEY | q = 0 | S = 0 | Stoichiometry = C8H16CuIS4 | MND = 5
I        -0.00000000000108   -0.00000000000053    6.46730157758418
Cu       -0.00000000000030    0.00000000000016    8.93774713275547
S         0.54126947281213    2.31376704648402   10.05904539342905
C         1.60355416243340    1.78777617989189   11.46182759427621
H         1.96471183886357    2.68614590111004   11.96591283976676
H         0.99707023299318    1.21062455666814   12.16049162244944
C        -0.97978887089498    2.78052145510500   10.94920868979274
H        -0.69978431783785    3.44569625757751   11.76729055144760
H        -1.55804954405318    3.33908486329428   10.21318613125401
C         2.78052145510498    0.97978887089521   10.94920868979280
S         2.31376704648376   -0.54126947281189   10.05904539342922
S        -0.54126947281167   -2.31376704648360   10.05904539342887
C        -1.60355416243341   -1.78777617989198   11.46182759427585
H        -1.96471183886365   -2.68614590111029   11.96591283976604
H        -0.99707023299325   -1.21062455666850   12.16049162244935
C        -2.78052145510495   -0.97978887089501   10.94920868979275
S        -2.31376704648392    0.54126947281191   10.05904539342871
C        -1.78777617989187    1.60355416243338   11.46182759427575
H        -2.68614590111008    1.96471183886357   11.96591283976618
H        -1.21062455666828    0.99707023299309   12.16049162244904
H        -3.44569625757746   -0.69978431783777   11.76729055144759
H        -3.33908486329426   -1.55804954405327   10.21318613125410
C         0.97978887089522   -2.78052145510492   10.94920868979280
C         1.78777617989200   -1.60355416243343   11.46182759427632
H         2.68614590111023   -1.96471183886367   11.96591283976666
H         1.21062455666837   -0.99707023299332   12.16049162244974
H         0.69978431783799   -3.44569625757774   11.76729055144743
H         1.55804954405361   -3.33908486329392   10.21318613125398
H         3.44569625757780    0.69978431783810   11.76729055144745
H         3.33908486329397    1.55804954405354   10.21318613125390

