21
CSD_code = QIVCII | q = 1 | S = 0 | Stoichiometry = C8H6N4O2Rh(1+) | MND = 4
Rh        1.10666942472534    2.97721836430462    1.52731971678431
O         0.31112641095360    3.05572952943625    4.40829047233173
O         0.85913247376683   -0.00173683745369    1.47870285613027
N         1.65839201006064    3.09856191977108   -0.41154019757272
N         1.31650934136340    4.98104830830556    1.39173972906991
N         2.24725090869426    4.37244354003160   -2.10624726770668
H         2.47668571951028    5.17795477332174   -2.66786550316460
N         1.81824826766328    6.72318411987703    0.14491215941518
H         2.08889065637445    7.29713261672469   -0.63880827317501
C         0.61061266333767    3.02026079061688    3.31701584604276
C         0.95312585544374    1.12609377460687    1.50157402723508
C         1.88986747400881    2.30110901413363   -1.48537321886928
H         1.78409687715773    1.23507650677202   -1.44396040690052
C         2.25740476958487    3.08264202386625   -2.54662312907446
H         2.51704141900124    2.82166205827668   -3.55138859782909
C         1.88055941109063    4.35394588003457   -0.80814678714540
C         1.69371091633406    5.38025351952514    0.17480493969721
C         1.50864030411563    7.19024155521765    1.38735617020942
H         1.53034314754515    8.23216565720276    1.63021231039121
C         1.19860376271599    6.09908238971443    2.15243310548860
H         0.90538818656056    6.06573049577966    3.18309204863470

