63
CSD_code = QIVFEI | q = 0 | S = 0 | Stoichiometry = C26H26CdN8O2 | MND = 6
Cd        5.91454092435254   -0.82467685663205    3.02087291932537
N         5.75556564360917    0.96323160228886    1.71310855462720
O         4.77365330190497   -2.03566877710813    1.73942919599088
N         5.73386480829494   -2.60830938547704    4.33114847818381
N         7.51532697470854   -0.58390692286042    4.66560021962878
O         4.72361572730978    0.37004156385651    4.27277717405728
N         7.55864174672727   -1.04720148032432    1.42040510405540
N         7.74398253928316   -1.28482711487508    6.92870425339243
N         6.42914940594623   -2.45279919678211    5.48831633833731
N         7.85181170679489   -0.33127785661331   -0.83036400268087
C         7.31507828572530   -0.22939364559216    0.38927313782852
N         6.48771640981099    0.82096540703586    0.57706349217989
C         3.95688639363472   -3.77309857543683    3.19198926173265
C         3.92589506768356    1.33302664478556    4.01715268284693
C         7.24475390561789   -1.39669608989274    5.69396346292835
C         4.81371816618267    1.84401747210319    1.72026506561914
H         4.66232014263299    2.45392036108013    0.81697911314446
C         3.97391890453581   -3.00163840605629    1.97735127982822
C         4.79590267163053   -3.49276873766396    4.30275773197817
H         4.61860601830560   -4.09515947700783    5.20635212624157
C         8.94214742310618   -2.28057430425496   -0.04967620011512
H         9.58873540352591   -3.12107388315296   -0.24112348973051
C         8.29705744504169    0.46650490192138    4.91163592638027
C         8.66486481288397   -1.34911107846255   -1.05216829547257
C         3.93961547076784    2.11137084124850    2.80683332309098
C         8.53726380028024    1.40582428651746    3.77821087950848
H         8.87364285541572    0.85279129643125    2.90228643720283
H         9.27119640847664    2.16220815036538    4.04333491934117
H         7.59274877377730    1.88728588235552    3.52259180190424
C         8.35256973237896   -2.09230217162900    1.19211133759492
C         2.08236827138220    2.73869103085393    4.80568499327588
H         1.36404422611716    2.98596631675249    5.57538941750250
C         8.54505582044012   -0.26184740470603    7.16876388952316
C         8.84744506237250    0.66539871686388    6.16952451833647
H         9.48344264391915    1.51050206246430    6.37553509615457
C         2.16345255245065   -4.42363369582682    1.14294107370249
H         1.46935241059141   -4.67948259371714    0.35404326602529
C         9.25961281008536   -1.46509253122062   -2.41649705765863
H         8.90499654869545   -2.37518072134419   -2.89728298006073
H        10.34458197490363   -1.51902981727075   -2.35181358947302
H         8.97090658900571   -0.60775994804253   -3.01645483435565
C         3.03016321418975   -3.38139877231017    0.97790978760041
H         3.03440040344503   -2.80289828468451    0.06493439224908
C         2.95099402153789    1.70146644905736    4.99067719521837
H         2.93256592087197    1.11818923869231    5.90043374441929
C         3.01845748518902    3.16676830607627    2.65308941726959
H         3.04494526281053    3.73673454682572    1.73287602826360
C         2.10957453243464    3.48856302994660    3.62347065106312
H         1.41799061885480    4.30537475876393    3.48251080058771
C         9.10270316415479   -0.13757051825281    8.54797604132836
H         8.74952080756122   -0.96025272746107    9.16165922108365
H         8.78963124656255    0.80561300083644    8.99169604336469
H        10.19058686281777   -0.14934548878822    8.51446725986507
C         8.56134701983559   -3.03770637309401    2.32657227239940
H         8.86225395923095   -2.48835966760373    3.21760625438285
H         9.30994333452498   -3.78661915042014    2.08201607820141
H         7.61224161283131   -3.52818663142064    2.54567781297838
C         3.03858609966151   -4.83377992324076    3.32448919857338
H         3.04166419917772   -5.39859606473195    4.24823881848052
C         2.16107312161537   -5.16717575656860    2.32940680106000
H         1.47137626972309   -5.98818408973734    2.45432125244651
H         6.15533965640143   -2.98241411068999    6.31701940281944
H         6.23739140626577    1.35614236382964   -0.25546449558628

