76
CSD_code = QIVHUY | q = 0 | S = 0 | Stoichiometry = C26H47P2Rh | MND = 5
Rh        4.75632000706408    1.97180693032851   10.77213153872972
P         3.24952974984413    2.52804447324939   12.39244438146991
P         4.45453394294291    4.20363966839980   10.45626465629120
C         6.04730108161326    1.30099637548562    9.21153049587163
C         6.24489979654459    0.50536349797259   10.35495478341754
H         7.19465345598240    0.54693299878704   10.88341652230798
C         5.12871003013861   -0.15312217468822   10.92434020166274
H         4.37060736683695   -0.51490574901767   10.21854205044304
C         5.18987506272519   -0.92821686944406   12.16033278453138
C         6.16980824294376   -0.72778534832195   13.13802663061020
H         6.93854440931829    0.01648342594218   12.98569442647204
C         6.16826669891610   -1.45688931414626   14.30964549833697
H         6.93524442344143   -1.27873363457064   15.05071651281840
C         5.19079879539573   -2.41048206613901   14.54423455149133
H         5.18875610726515   -2.97596242236593   15.46464597818304
C         4.21880954992791   -2.63338729303761   13.58300534592879
H         3.45514594949856   -3.38044658242567   13.74956789872060
C         4.22184425089647   -1.90734745723325   12.40904883373318
H         3.46075162381248   -2.10011570346723   11.66422900508551
C         3.22324506736986    4.34674888298928   11.87966527073955
H         2.23582753736059    4.67740862592835   11.56608048393509
H         3.57167449518220    5.01747905778419   12.66161843458269
C         1.44193103625753    1.97670527423244   12.12351523420686
C         1.35349688052535    0.45771983339366   12.29566607810934
H         1.25922988314492    0.15130872728031   13.33057914748982
H         2.24359895636453   -0.00780682551398   11.87645962694201
H         0.48352888123102    0.07475402835446   11.76237060859929
C         0.38448954890225    2.69403958969281   12.95581213569427
H         0.49818056500764    3.77521428529096   12.89157299830907
H         0.42462321069781    2.40200371451557   14.00158493099246
H        -0.60649257865373    2.43813202212043   12.57967677798206
C         1.19089591675473    2.25065242657281   10.64093505295767
H         0.29562425377846    1.73243045021991   10.29899986262769
H         2.04576340885512    1.88887872236727   10.06062052175701
H         1.04902992868477    3.31109575225312   10.45468787574744
C         3.59165721819322    2.51166380429179   14.27943603211046
C         3.02289102823275    3.70708427262309   15.04072229572649
H         3.19745636727056    3.56759942627182   16.10748092849525
H         1.95364783379670    3.81419818769151   14.88467819491014
H         3.50702274129430    4.63689243895971   14.75077217908692
C         3.04785763889976    1.21493965469538   14.87996679270448
H         3.42936547627868    1.09508173019027   15.89419419203425
H         3.37964917422513    0.35893963320870   14.29597811077543
H         1.96432032514169    1.22034948197085   14.94220067096003
C         5.11520250590716    2.46237992900615   14.44292317166748
H         5.55274962644152    3.45409415710795   14.44968020821503
H         5.55682104343822    1.88366236495533   13.62981216479974
H         5.38142682351657    1.97890804574707   15.38123984700969
C         3.60425327336343    4.99391851539216    8.92482133423435
C         4.66903444930671    5.51105356146150    7.95711522869249
H         4.20357372244033    5.76384602000504    7.00398000668025
H         5.41385689892208    4.73963089976347    7.77412569496506
H         5.15420589329767    6.40861868750480    8.32643922882959
C         2.62566284260570    6.11828917995131    9.25439316372112
H         3.09370452093465    6.89632594255616    9.85058899503494
H         1.75536211952384    5.74926125509698    9.79212523984892
H         2.26916335863145    6.56859495841047    8.32797565568418
C         2.87722857688916    3.85600337825350    8.19743290600414
H         1.88300696736567    3.69264500075243    8.59603047134699
H         3.44929096892579    2.92953868286429    8.28694665618809
H         2.77056872003243    4.08771671354216    7.13881568352710
C         5.87523675891064    5.36133170606396   10.99420209108550
C         5.51305172961082    6.83306068555790   11.16415956578999
H         6.33767952887647    7.35395816052268   11.65151412351505
H         4.62817629773857    6.94979780633824   11.78805925268496
H         5.33194964755522    7.32304380349630   10.21157447365072
C         6.32802907445146    4.79588367551279   12.33983229898108
H         6.40937414807191    3.70765396789886   12.26103309297014
H         5.62922818049434    5.05060001980981   13.13069957462613
H         7.30155889246120    5.19806547300699   12.61755295707985
C         7.05942184828445    5.17867625831196   10.04062245148770
H         7.97877068304207    5.50323241096328   10.52744987101549
H         6.96070193839823    5.74828960358622    9.12435568902606
H         7.16239264332944    4.12293317453646    9.79182313346829
H         6.90775295355508    1.80644425220711    8.78410855841367
H         5.33574802378916    0.95675575712446    8.45722067616658

