36
CSD_code = QIVJIP | q = -1 | S = 0 | Stoichiometry = C11H18CoN2O2S2(1-) | MND = 4
Co        9.20182171399013    6.44890728668819    1.64212557770495
S         7.88688785867634    4.82792137366366    2.10964481549186
S         8.35878601635014    7.59450042857798    0.09550221853038
O         9.06384782155151    7.26609781644859    5.52844559427365
O        12.59633395019918    8.43490421818653    2.23013426045921
N         9.61519692169441    6.85413351221512    3.36757788173539
N        10.81385262207353    7.37517137220647    1.26269338737733
C        10.99295875993199    7.22958259670086    3.60075245942685
C        11.56959644542239    7.76025815827143    2.28445344516347
C         8.74646744965444    6.98577030531981    4.37292990799070
C         7.27956924725867    6.77384385347048    3.99004259732071
C         6.95052880499871    5.32793550800769    3.61607028076030
C         7.33178177125560    4.37517822474219    4.74482590428820
C         5.46490664699774    5.20325829593298    3.28569829155916
C        11.04419619761567    7.94542721044931   -0.04764936023429
C         9.76514929329222    8.65996069354617   -0.48415175913852
C         9.66747179066280    8.80279211621424   -1.99663704073728
C         9.63558581724985   10.01134409842686    0.20824910682325
H        11.04730465272983    8.00043576606179    4.37806043766202
H        11.58806663941779    6.36792559646647    3.93078818046952
H         6.67053489305249    7.07118188428118    4.84859764688070
H         7.04386968236042    7.42444919034332    3.14069478810710
H         7.12402551453220    3.34658808715870    4.45575458142011
H         6.76795779224680    4.61499351197044    5.64624217876976
H         8.39210892097019    4.46676293216821    4.96918289080354
H         5.21172836192603    5.85973671908861    2.45609843340336
H         4.85773533390114    5.47325560255501    4.14976980916055
H         5.23373101470433    4.18028389083225    2.99598415246040
H        11.88905490802801    8.64425525915854    0.00638888132306
H        11.28625921985991    7.14757353404519   -0.76374514696487
H         9.69114914602322    7.82401918441537   -2.47133475171316
H        10.50070850006947    9.39695202269061   -2.37115331468120
H         8.73345848690065    9.29165942666316   -2.26548379563840
H         8.65526461355656   10.44316335314823    0.01610957152923
H        10.40537730717882   10.69543438346071   -0.14880608219847
H         9.75472588366560    9.88244258641868    1.28254397041170

