115
CSD_code = QIVKIP | q = 1 | S = 0 | Stoichiometry = C32H72CoN6O4(1+) | MND = 6
Co       -4.29341365050125   -2.15944242308178    2.72735102613529
N        -5.73488369357226   -0.96615147012887    1.97127848237884
H        -5.36523709275238   -0.62948471626369    1.07179445537887
H        -6.63995774542549   -1.40042279906195    1.78552468572400
N        -3.77219658573021   -0.49639863834365    3.81146312314560
H        -4.20283027215880   -0.72355759450757    4.72063415109200
N        -4.77883300944629   -3.67494813778936    1.48540819735136
H        -5.63578467021147   -4.08467341649794    1.88141147942006
H        -4.97892435484459   -3.42712920601300    0.51547864757078
N        -2.98879419947405   -3.51728970387827    3.53722712247813
H        -2.10479258045741   -3.22500002586082    3.09390973834049
N        -5.52878446722652   -2.69681885954190    3.99064766891436
O        -5.47603166859273   -2.19353441515701    5.10545240171121
O        -6.37565167035711   -3.51713708256458    3.66037103173445
N        -3.06789440747404   -1.61984703369183    1.45645668350853
O        -1.89117093617028   -1.91369294795265    1.62120437176834
O        -3.48090800401883   -1.00810543337745    0.47961647837068
C        -5.91371286300662    0.18775608004303    2.86490624180977
H        -6.47414519250050   -0.12136750274584    3.75109549139444
H        -6.46299763081381    0.99742829314962    2.37486870174140
C        -4.52047675075443    0.65030220238154    3.25812086273580
H        -4.58139409251031    1.46714627920411    3.98165079907312
H        -3.99248700720611    1.01184970019931    2.37075384652425
C        -2.37203018494992   -0.12247815146609    4.08165155132425
H        -1.97704924768041    0.41814173457728    3.21890335588875
H        -1.76962938397595   -1.02417425452537    4.20244069595056
C        -2.23558998499436    0.73454797413507    5.34163939354702
H        -2.80604398291225    1.65784088834623    5.23008654532065
H        -2.64341789512553    0.19141745297565    6.19841646365284
C        -0.77994133727326    1.10418005544037    5.62276314924395
H        -0.19729390722954    0.20211705885000    5.81615844468563
H        -0.35499463313277    1.59409319402842    4.74483998831059
C        -0.67793368461089    2.04444164157365    6.82226710290667
H        -1.09393380419292    1.55271234326997    7.70465869334161
H        -1.27749278419638    2.93745005015596    6.63110878482932
C         0.76044155273456    2.46535987844360    7.11126169186956
H         1.36231226857612    1.58175853259983    7.33100210532865
H         1.18255810042867    2.94413596940156    6.22520324189947
C         0.83195321553896    3.43293293210857    8.28996682140508
H         0.40766555250205    2.95411895583957    9.17580987495251
H         0.22356791975697    4.31362168182975    8.07100184213846
C         2.26171300136424    3.87330387591028    8.59211914036057
H         2.87133680989150    2.99597746913170    8.81730602490505
H         2.68623354436672    4.35493974361770    7.70845753584101
C         2.31713002305947    4.84192180900147    9.77063297503862
H         1.89072585244557    4.35960270416179   10.65373247526559
H         1.70314642679674    5.71780862340820    9.54783512000085
C         3.74229846376759    5.29174373371661   10.08115804867638
H         4.35807951411156    4.41662695418655   10.29900376833829
H         4.16512780334120    5.78436677923336    9.20258169041001
C         3.78956274820978    6.24950187375762   11.26881376704196
H         3.37016219856048    5.75393629504840   12.14809632000606
H         3.16518301882198    7.12058831960642   11.05581970819329
C         5.21084522154023    6.71122198648374   11.57999604597761
H         5.83728719166222    5.83986471439215   11.78317597846864
H         5.62513324308259    7.21834814868121   10.70534228615741
C         5.25497473445225    7.65484646652970   12.77848973934295
H         4.84111008033509    7.14675891615449   13.65352616585631
H         4.62358217147555    8.52428063411657   12.57867081173496
C         6.67258609323005    8.12489943853548   13.09343442619490
H         7.30757704072774    7.25638078983560   13.28281576612765
H         7.07967995217344    8.64789157893239   12.22484845419602
C         6.70726440798301    9.04903470731718   14.30386593652155
H         7.72482683208039    9.37313662986820   14.50862464458009
H         6.32636660314698    8.53789248183846   15.18569556872161
H         6.09462212108147    9.93110483179441   14.12926794684474
C        -3.71404558148459   -4.68819171437200    1.52772145113341
H        -4.04880373031949   -5.64407305680455    1.11358652757349
H        -2.85841366976742   -4.34008452726360    0.94303384494004
C        -3.32185578809802   -4.84651963359493    2.98781624609655
H        -2.47630915296524   -5.53239490663807    3.08161983337544
H        -4.16515473943222   -5.25377101170754    3.55332313584077
C        -2.73339882071122   -3.59458146140242    4.98508694671085
H        -3.58258468508404   -4.07551056779090    5.47450230730835
H        -2.65135389089259   -2.58289876458476    5.38077275730663
C        -1.44477368912052   -4.35718287265946    5.31118333418366
H        -1.60051393980814   -5.42604859468223    5.16003729618417
H        -0.64938794863721   -4.03025779773570    4.63553407380850
C        -0.98795194116989   -4.13350222544185    6.75412960970865
H        -0.21537509895087   -4.87073407888179    6.97839285426077
H        -1.82074262022866   -4.31477896607195    7.43535025128992
C        -0.40855559763682   -2.74178223104825    7.00136821169158
H        -1.19798909962909   -1.98788054655869    6.96429331330513
H         0.31730645537265   -2.51049376401916    6.21715177795340
C         0.28894359585674   -2.65546092558800    8.35752371779753
H        -0.43182976202731   -2.85964799785525    9.15162150764257
H         1.06409196770474   -3.42258296477413    8.41019035335739
C         0.92702841947334   -1.28760908961117    8.58566269043391
H         0.15184978480382   -0.51784909580274    8.58589066560890
H         1.61170936346726   -1.07058214736303    7.76132587547429
C         1.69879795035657   -1.22709960893070    9.90120289846140
H         1.01614387009580   -1.41704467111944   10.73223719549535
H         2.45555993130989   -2.01466077196462    9.90982364801188
C         2.37971956545088    0.12424728977122   10.10150104863311
H         1.62409422382566    0.91283685323316   10.11500400537100
H         3.04635864955876    0.31804909828675    9.25701534368380
C         3.18639069295808    0.17653631960563   11.39622144830494
H         2.52192881355669   -0.00259145283862   12.24455291069214
H         3.93240914472481   -0.62150741562968   11.38823088079389
C         3.88859600215069    1.51963549686072   11.57799910184541
H         3.14277921978852    2.31739247054479   11.59832215168553
H         4.54410143914197    1.70068700227230   10.72208452309729
C         4.71455867856154    1.56844768874830   12.86071692775988
H         4.06138686646557    1.38998618674631   13.71819155421223
H         5.45787863666363    0.76781953934721   12.84168071550928
C         5.42231935623714    2.90947030118801   13.03595604373535
H         4.67892153336852    3.70940647230256   13.06286929895539
H         6.07107861470992    3.08925263156028   12.17454604449886
C         6.25923972297710    2.95742975635891   14.31163923375895
H         5.61245265447838    2.77828363862009   15.17370620428359
H         7.00246679322354    2.15718295504434   14.28526061139168
C         6.96422318997889    4.29757475114380   14.47833946121540
H         7.56001529527879    4.30742863594425   15.38788893574281
H         6.23824098730972    5.10537229014502   14.53494160933663
H         7.62514801201902    4.48790488764994   13.63483382696744

