87
CSD_code = QIVRIZ | q = 0 | S = 0 | Stoichiometry = C42H39CuNOP3 | MND = 4
Cu        3.48637086074887    5.50826923456143    5.38731510082412
N         2.91112247329148    5.92111865460134    3.71948532636643
C         2.89602694345429    6.52692783786468    2.70750438413514
O         2.84175745619302    7.09022275972879    1.68051810222769
C         6.52705859635321    5.39028040982037    8.24814167481049
C         7.34676079220999    5.37997331590774    9.54638407310007
H         7.34166871802622    4.39039640989259   10.00067943136768
H         6.93979709122572    6.09024823965642   10.26425426227894
H         8.38035941587371    5.65508162075781    9.34387903274743
C         5.06134925565104    5.12350234849478    8.60612962805073
H         4.61301917394762    6.05467335037161    8.97641426256372
H         5.01254803281351    4.38122440689941    9.41259320444533
P         3.87931317130383    4.51237676315380    7.32262654629858
C         2.36453172721376    4.42461250959280    8.36692404351260
C         2.18984413197019    4.82291840951175    9.68575516740220
H         3.00801797585486    5.22196042179431   10.26647269536511
C         0.94261272066210    4.71663457449146   10.28031629686755
H         0.81548797558483    5.03029221604140   11.30674441517217
C        -0.13589028843451    4.21740692311240    9.57261918685323
H        -1.10372160742265    4.13936225629578   10.04538172978234
C         0.02760754023524    3.82700264381871    8.25190700007468
H        -0.81212221256212    3.44524431933569    7.69027345423819
C         1.26645496303546    3.93980375223012    7.65596954009247
H         1.40813250781242    3.66157776600934    6.61675925371924
C         4.13139198682634    2.70591046893825    7.21647746726426
C         4.45246550221760    1.88585503848578    8.29103975051175
H         4.59414252702022    2.30063294262938    9.28005901385226
C         4.58279458948141    0.52203628982220    8.09942455013366
H         4.84682442115514   -0.11231320957759    8.93362328629334
C         4.36777895646341   -0.03375556960468    6.84869722260661
H         4.47241356409372   -1.09921456830605    6.70798291664674
C         4.01101129065594    0.77507579887024    5.78285563157027
H         3.83202140449408    0.34455282285699    4.80914373123486
C         3.90052943710291    2.13994298807942    5.96682720668873
H         3.63252029766640    2.79543257804240    5.14367338349554
C         7.05187520619153    4.29415113296304    7.32336721685998
H         6.81480593676885    3.32005243693048    7.76483682804576
H         8.13550670550958    4.37177576774577    7.19727843255521
P         6.17382334473235    4.34899995931757    5.70903886549565
C         7.23157200828681    5.33914129008701    4.58698899351377
C         8.61607867838164    5.42969161415460    4.64812647298156
H         9.17013161375154    4.91872259588150    5.42417803417237
C         9.29931935847340    6.17158493259911    3.70102726023657
H        10.37604923679909    6.24964835896494    3.75904890486837
C         8.61444059412544    6.80306838102659    2.67571859443348
H         9.15712187384132    7.37710094739377    1.93925966412811
C         7.23673076127503    6.69292922226694    2.59350627714210
H         6.69569136901334    7.17754452856708    1.79481326725166
C         6.54938880706387    5.97030675326103    3.54986687704026
H         5.46791607062400    5.89406837280444    3.50497434725597
C         6.66698126737902    2.73296899294256    4.98965574416405
C         6.19620173887741    2.53165604747485    3.69229742104510
H         5.62996355532101    3.32130877355751    3.21346662315174
C         6.43774549992430    1.34714948251825    3.02776547703894
H         6.06822087081254    1.20545819516158    2.02256006449851
C         7.14931587445582    0.33740216108995    3.65699920508848
H         7.33706892403288   -0.59491454024208    3.14492889604419
C         7.61788268719745    0.52799153799576    4.94430662288265
H         8.17443108247163   -0.25633711176459    5.43767293962547
C         7.38078993125098    1.71788347075252    5.61169299369430
H         7.76083841154904    1.83518015287479    6.61532846652543
C         6.69002166567190    6.75976484187325    7.58066021731883
H         7.65382191363931    6.78508472000017    7.06432820712148
H         6.66148761606918    7.55847214003593    8.32841397234565
P         5.36075221722801    7.02614502663637    6.32031076667973
C         4.24925924629099    8.11533623251763    7.31166534248813
C         4.73062938219962    9.30220531916211    7.85974154695083
H         5.75539600941208    9.60078276643154    7.68058161503436
C         3.90012869451023   10.10876556956537    8.61350124835859
H         4.28156467819797   11.02877314501612    9.03279460243184
C         2.57974928272224    9.74380887144307    8.82847787301593
H         1.93499017859856   10.37491020841902    9.42214652536975
C         2.08823241756620    8.57731814145031    8.26944896153235
H         1.05771554182807    8.29095317469787    8.42073512832912
C         2.91863112952844    7.77244326858215    7.50883890794984
H         2.52438644169499    6.87023181932178    7.05053057266818
C         6.03181193525023    8.35574671056634    5.27190567980485
C         7.33649094242873    8.82835733424446    5.23461452245816
H         8.08682140794085    8.45412406411160    5.91575933149825
C         7.69187041259289    9.79440048553284    4.30892879258774
H         8.70873531389464   10.16015313652013    4.28639258238467
C         6.75932367197146   10.28808779070559    3.41366511298209
H         7.04904354858508   11.03607809950314    2.69036589377345
C         5.45522739056747    9.81810426662590    3.44399395856755
H         4.72424252091785   10.19193218128152    2.74279814307056
C         5.09621238559368    8.85778773775243    4.36666162499546
H         4.08486125479125    8.46843276748622    4.39078240793881

