39
CSD_code = QIVVOG | q = 0 | S = 0 | Stoichiometry = C13H19N5NiO | MND = 4
Ni        2.48522085171107    5.84678325576514    4.32095999185409
O         1.50419238557320    4.91922314829239    5.57072962823426
N         1.29931334619048    5.35962125964968    3.01787578819892
N         0.27789185400802    4.77831202294327    3.01720258539114
N        -0.70495379409334    4.24404956566030    2.83651592636065
C         1.77278422840330    4.71014899053919    6.80884244259301
C         0.83461132029744    3.97831008885803    7.58292511570535
H        -0.05570694386993    3.63522378797474    7.07885681256943
C         1.05067198878942    3.72160806403796    8.90802537302601
H         0.31727345576766    3.16162103632179    9.47017492056495
C         2.21110583872846    4.17274007331802    9.55039132777980
H         2.36571692798302    3.96022063414800   10.59704966643638
C         3.14061740727244    4.87958890734872    8.83861732021273
H         4.04291506189486    5.23362230096617    9.31905023216809
C         2.95377501023730    5.16406515102757    7.47242331971821
C         3.94665560059451    5.88711252204567    6.76360646969200
H         4.83342256322081    6.17641834700028    7.33559630537385
N         3.88144374419226    6.21403928651145    5.51661307493826
C         5.00518920887712    6.90515156071982    4.91537450538241
H         5.69685616101565    6.16344166609262    4.49477618958992
H         5.55997535789758    7.49294087251650    5.66003330542367
C         4.47038755756255    7.81751103669559    3.81301223058514
H         3.95554874322021    8.65386031799132    4.28870404759771
H         5.29456690071298    8.21897337119083    3.21171435387013
N         3.49288928435045    7.09389325181849    2.98314136047860
C         2.57965469806684    8.04487400230091    2.32371849587617
H         2.03864593258829    7.48934681129691    1.55612922079972
H         3.15030914324453    8.85272462533664    1.84846875367503
C         4.15056003724842    6.21882190895892    1.99221237458065
H         3.36993750216034    5.59457415645403    1.54999718726773
H         4.83667906023219    5.55940403970249    2.52899809231630
C         1.56237576486068    8.62829671025950    3.30072759313197
H         0.71861935799917    9.03974656008906    2.75439292453550
H         1.98324262538250    9.41772633161640    3.91923441060970
H         1.19169672459025    7.82417235164502    3.95387340942440
C         4.91214142853687    6.92210309583770    0.86755047255301
H         5.38225152095332    6.16475771754444    0.24559603947241
H         5.69652815280298    7.57484054866130    1.24370092874196
H         4.24449399079387    7.50443062086563    0.23898780327255

