81
CSD_code = QIVYEZ | q = 0 | S = 0 | Stoichiometry = C20H54FeSi6 | MND = 2
Fe        4.03136380709038    2.23112448417876   -0.00013288542592
C         3.59512348106792    2.61770734999210    1.96140624231146
Si        1.75511195585447    3.05164214621757    1.94867282794939
C         1.31525897578782    4.84303947387621    1.43180901506562
H         0.26631736507992    4.91340649304216    1.16006531299790
H         1.89525805997858    5.19193699233938    0.58852766465257
H         1.48122557717269    5.53427419411188    2.24994644715999
C         0.95673396845877    1.87194121838728    0.66620977692296
H         0.22557005423137    2.37961556116945    0.04683923847299
H         0.44747342419590    1.04686637299603    1.14917594296325
H         1.72048939757263    1.45188872759682    0.01297775933527
C         0.88291132342495    2.83594580768916    3.63859789012412
H        -0.16576698978210    3.11127378405222    3.57987775585379
H         1.34535218724512    3.46521494123629    4.39122342135911
H         0.93522638289993    1.81316793481917    3.99186907307624
Si        4.00432041101560    1.00279493101708    2.85497025026454
C         2.67436666695284   -0.37274226916757    2.76519776031067
H         1.86108881089807   -0.17222658939117    3.45288726702142
H         3.10141212820791   -1.33141850436896    3.04388893954479
H         2.24669711342898   -0.48036978785586    1.77790120413574
C         4.32874374034611    1.20370829495284    4.73048721985906
H         3.46154327492330    1.62723807267628    5.22532738010581
H         5.16863035133662    1.85911682063794    4.92715038368620
H         4.53951853214823    0.24742704784315    5.19957437655925
C         5.58167795270044    0.32580855845858    2.00209482726389
H         5.71901478749760    0.79955615048249    1.03089038991387
H         5.53214792584213   -0.74669759587187    1.84977308630913
H         6.46822372634608    0.52316693979545    2.59232311162917
Si        4.73025695593108    4.06004333051886    2.41406058002816
C         4.14523589345343    5.07878069264259    3.92495888899037
H         4.07156097027955    4.45062344313858    4.80600227058390
H         3.17114875845827    5.52281323995044    3.75864564226820
H         4.83953861984791    5.88214224635263    4.15190517563488
C         6.54206257863418    3.60567042076562    2.83883187482624
H         6.61873395490552    3.21431820290437    3.84660106709189
H         7.17591398612385    4.48580425430550    2.78717406539168
H         6.95721503233364    2.86468819930006    2.16964785309587
C         4.77443173451813    5.18912280374910    0.86590351340155
H         4.13552177084827    6.05525641873425    0.98808700375931
H         4.42726767323745    4.64304428147094   -0.01027041351497
H         5.77376188170148    5.55637924429937    0.66001993207951
C         4.46884085892272    1.84475708577338   -1.96143249392401
Si        6.30887078127939    1.41083978942683   -1.94867128371891
C         6.74874367332205   -0.38055324524788   -1.43176675411538
H         7.79767420479407   -0.45092117419235   -1.15996437258794
H         6.16869384136812   -0.72946110677540   -0.58852369182682
H         6.58282296562441   -1.07178045328714   -2.24991846096101
C         7.10739141189477    2.59056391071086   -0.66629836805744
H         7.83858438720012    2.08289252175319   -0.04695106575109
H         7.61668106227137    3.41557409359006   -1.14935112238169
H         6.34385206216649    3.01080404213490   -0.01296721685180
C         7.18112578810996    1.62656169272776   -3.63857255854404
H         8.22981940830118    1.35129075824721   -3.57982354945404
H         6.71873632996302    0.99727326184325   -4.39120933011679
H         7.12876523451584    2.64933920578700   -3.99184019114619
Si        4.05964349451898    3.45966864300751   -2.85497974054893
C         5.38958756456441    4.83519563696274   -2.76516215176538
H         6.20290697333580    4.63468440275143   -3.45280399419067
H         4.96254406204774    5.79385707001999   -3.04390174431785
H         5.81720848341038    4.94286572682816   -1.77784994987965
C         3.73528529010127    3.25880240018441   -4.73051085500841
H         4.60254562599863    2.83540530947422   -5.22536068948162
H         2.89548198048576    2.60330792597494   -4.92723251092571
H         3.52440851370108    4.21508839814082   -5.19954000133055
C         2.48230811071646    4.13664875655966   -2.00207821933795
H         2.34511809826147    3.66287277188888   -1.03085551240368
H         2.53183825130646    5.20915848039230   -1.84979188502818
H         1.59575413240799    3.93925626120393   -2.59227806716300
Si        3.33369080527991    0.40243685960879   -2.41407288727842
C         3.91874842894979   -0.61629989585945   -3.92494657910032
H         3.99240649669005    0.01184193676277   -4.80600294662273
H         4.89284822120003   -1.06030415871125   -3.75863589360581
H         3.22447803609760   -1.41968677606096   -4.15189081118812
C         1.52189969976476    0.85682206628182   -2.83889386542431
H         1.44524837180581    1.24820261136286   -3.84665471147002
H         0.88805160564885   -0.02331255544037   -2.78725842656573
H         1.10674477127134    1.59778716866148   -2.16969296952558
C         3.28954714498879   -0.72652769694579   -0.86583639885860
H         3.92844932438611   -1.59267677247396   -0.98795279215318
H         3.63674855818622   -0.18032336448889    0.01025557080584
H         2.29022174294353   -1.09374591762876   -0.65988064125241

