97
CSD_code = QIVYIE | q = 0 | S = 0 | Stoichiometry = C46H48N2Zr | MND = 5
C         4.58519734892952    3.10071264525085   -5.58368651918829
C         4.43327359327638    2.59213923007568   -4.17927035910232
H         4.47020213688889    1.49134078324854   -4.19661174190906
H         5.36502418580346    2.91391515488425   -3.66742363311061
C         5.68467164593656    2.47272783723746   -6.40948054507283
H         6.54841827459831    2.28192842016967   -5.77103205560435
H         5.97325253734633    3.13748805653978   -7.22381577072006
C         5.18222307323965    1.17275517874633   -6.99151157483572
C         5.35019565429847   -0.02744566262739   -6.31232074481804
H         5.88191637694076   -0.04508658462468   -5.37140276517312
C         4.85081821589310   -1.20713410592696   -6.83699822528410
H         4.98785463890798   -2.13299646720141   -6.29863859798625
C         4.17653297242967   -1.19945715187303   -8.04624281649658
H         3.78251254191422   -2.11860567920208   -8.45243917425641
C         4.01913657720774   -0.00945868373071   -8.73618278573236
H         3.50585782908840    0.00225015645836   -9.68612849698549
C         4.52110772021873    1.16944857529358   -8.21341395193021
H         4.40902994764550    2.09352989923309   -8.76200750984988
C         3.91196086257249    4.57789371405816   -7.27828505684080
C         4.95532547617091    5.46668371156774   -7.56453039121970
C         5.03870530488107    6.01233814953385   -8.83855012176311
H         5.84355309805701    6.69686948855632   -9.06157004575860
C         4.10903616260144    5.69738738127011   -9.81105663382440
H         4.19246226532212    6.12253759163153  -10.79931511998733
C         3.05190903394469    4.85916045098491   -9.50309860293286
H         2.30265751991811    4.64085063602360  -10.24971324635623
C         2.92961028230045    4.30079524974160   -8.24000198924518
C         5.94218781465593    5.86491863075740   -6.50763584796929
H         6.23695446239612    6.90223602742721   -6.64727886435031
H         6.84692197499560    5.25764679731923   -6.55661260455710
H         5.51077991452099    5.75627345927547   -5.51125052259494
C         1.75184415557591    3.44059541281561   -7.89119562979588
H         1.31172722704215    3.77508710379448   -6.94168695794288
H         2.05041180737659    2.39678045857259   -7.78627086574671
H         0.99819935983020    3.50139234473273   -8.67306523796771
C         2.52749964052735    2.04819669957447   -2.87404236247342
C         2.36592801644281    1.99506619308886   -1.47373797468502
C         1.70945522058865    0.92579738189757   -0.88671104859537
H         1.61387560627908    0.89759511723780    0.18958610216638
C         1.19117006866288   -0.10541690898136   -1.64788182166982
H         0.69061154077956   -0.93799450299484   -1.17670255290795
C         1.31064821790842   -0.04727645926175   -3.02328501975923
H         0.88357448242710   -0.83049547161519   -3.63531722450279
C         1.96536036849290    1.00557472710317   -3.64384574138058
C         2.90788956673691    3.08388268061323   -0.59840735421228
H         3.82949603844693    3.48209618887756   -1.01731490709343
H         3.10506249947969    2.70601597837229    0.40286894186184
H         2.17583432785492    3.89066171170082   -0.51767987110543
C         1.99254052691820    1.04766315230671   -5.14748249275571
H         2.12636720375815    2.07809094236750   -5.48404961543572
H         1.05360655614953    0.66170102516124   -5.54397228544074
H         2.79519553339327    0.43240491609828   -5.55747102329495
C         0.22496580987808    4.14428013622468   -4.27145987430176
H        -0.33155505135995    4.86353032021983   -4.88781933621227
H        -0.00565192792427    3.11906301679292   -4.59072574037494
C        -0.08184423715939    4.33410459281490   -2.85019740773513
C        -0.36834360282770    3.26230489473078   -1.99111651660035
H        -0.41842502883609    2.25998007266631   -2.39515876317069
C        -0.61343769420813    3.46639905612919   -0.64697546636070
H        -0.83441658555972    2.62002465282073   -0.01239014479983
C        -0.59059247695541    4.74451289243735   -0.11170644695591
H        -0.78272974946974    4.90096318609285    0.93929808685752
C        -0.34572843236298    5.82478289504513   -0.94828615000354
H        -0.36017995859701    6.82872155125330   -0.54698080985640
C        -0.09811207072216    5.63041778839891   -2.29311687129264
H         0.02477720378452    6.49080019303342   -2.94750939171798
C         3.09308562214667    6.22204132370172   -2.50265554839857
H         2.51311473865523    7.14726285255666   -2.41956113202266
H         3.02337528134465    5.65618692694274   -1.56789395047618
C         4.47824833958256    6.48335317116422   -2.87537102930722
C         5.49710161562804    5.54140386917968   -2.62390869924420
H         5.24146729811766    4.62203864293531   -2.10901153486233
C         6.81205975024919    5.78709211722324   -2.96330654901954
H         7.57012482469115    5.04646637034327   -2.74368850245558
C         7.17608888631419    6.98501710953015   -3.56085958754114
H         8.20705913182191    7.17987578737447   -3.81466603570680
C         6.19750878534217    7.93731362727370   -3.80394138972243
H         6.47076177933207    8.88627689387808   -4.24452702427479
C         4.88069559664015    7.69528518154657   -3.47035500940954
H         4.14509358658231    8.47187696582723   -3.63639169835252
C         2.20073123533586    6.57884961947873   -5.65944889599453
H         3.09765198986778    7.20246529449770   -5.52630910506246
H         2.17062439083703    6.22218841546671   -6.69620320909950
C         0.98288149224989    7.33819406993201   -5.38445108679069
C        -0.21787337465407    7.04064914721172   -6.05520259000016
H        -0.21065758197173    6.27852721772732   -6.82805762088410
C        -1.39097254279823    7.70846547584369   -5.77140812010858
H        -2.29700986171664    7.44986414211983   -6.30247628571299
C        -1.41470758851068    8.71707075740827   -4.82024093884275
H        -2.33357770469696    9.23776544732903   -4.59671699015140
C        -0.23536699881919    9.06459660617083   -4.18041304653250
H        -0.23272397947095    9.87177106084930   -3.46051878386335
C         0.93955489059942    8.39595969665136   -4.46057815461906
H         1.85324492558572    8.70662981406953   -3.96972112160041
N         3.78548373161105    4.01051243535512   -5.98848418468639
N         3.28458234330625    3.08166196213961   -3.45505417487440
Zr        2.36793579039574    4.85269116738738   -4.16306190946047

