65
CSD_code = QIWCOO | q = 0 | S = 0 | Stoichiometry = C33H25FeNO3P2 | MND = 5
Fe        5.61724044354911    4.41389288220012    1.23959006084717
P         3.47279545947874    4.00091643889614    1.24258142592143
P         4.92947871596530    5.24160211282467   -0.67049894458344
O         6.78201303636136    1.76248437335747    1.67255103703785
O         8.35151820400800    5.31874181580954    0.90990475308293
O         5.37188926272225    6.19044527861037    3.54766129652960
N         1.01043920602248    5.39230553096202   -1.35747949398267
C         6.25635175811223    2.76861039733478    1.46517439139393
C         7.26877394138073    4.95130559818121    1.04181915312929
C         5.44524966457917    5.49966545869112    2.62866216492568
C         2.36043294546204    4.60474793092285    2.55106572614980
C         2.70902672114027    4.23125422877284    3.84641142540732
H         3.60040768573182    3.63141563482496    3.99323739860140
C         1.93407206291204    4.63227506012756    4.91736038074302
H         2.20745958840456    4.34451325227054    5.92170904606178
C         0.80912970318316    5.41220235829666    4.69816202385713
H         0.20511344966350    5.73362960420371    5.53381686702559
C         0.45936359742658    5.78422807695905    3.41052175601111
H        -0.41801024217806    6.39240362201009    3.24369973573388
C         1.22897820187942    5.38365699620437    2.33161982097549
H         0.94625023724382    5.67621265013675    1.32879840483041
C         2.64804979097151    2.42040163608250    0.83742109614342
C         1.25930081794425    2.31635893416853    0.84349107397558
H         0.65406326085133    3.16157746267739    1.13927562950833
C         0.65714431873008    1.12984572639390    0.47032265363725
H        -0.42040691589689    1.05258939190849    0.47227165493419
C         1.42985873274887    0.04222001413771    0.09418159871389
H         0.95351703611714   -0.88291889828796   -0.19521967445750
C         2.81115518387312    0.14045716500879    0.09244477085914
H         3.41535498686279   -0.70669473155433   -0.19740915963677
C         3.41873739125402    1.32716538625615    0.46121877527837
H         4.49588843183406    1.42030368760361    0.45358975895509
C         5.04390189832231    4.49575339966718   -2.32914576332471
C         5.87259341361939    3.39554960117141   -2.50631825518819
H         6.45145738374767    3.03793450759565   -1.66213803147867
C         5.94635759908235    2.77612506133944   -3.74187346472372
H         6.59385203626085    1.92290094936572   -3.88186972955597
C         5.18572244848460    3.25178818767314   -4.79698728558402
H         5.23840284048731    2.76702734694981   -5.76082847669025
C         4.35719228471124    4.35105846476629   -4.62293116266911
H         3.76664993595496    4.71869734917675   -5.44960264056000
C         4.28332958713157    4.97653553082233   -3.39358112351750
H         3.64434358534134    5.83823046790361   -3.25044829153668
C         5.14734833779141    7.00710663000694   -1.07632204034071
C         4.72521965656045    7.94633756637945   -0.13765944545907
H         4.24262499158331    7.61283782103969    0.77362371932333
C         4.94013496489858    9.29344607135976   -0.35194435781642
H         4.59850702351548   10.01613029788516    0.37460973380492
C         5.60875508362792    9.71519684003212   -1.49077815239521
H         5.78332294084776   10.76801542515357   -1.65620685149627
C         6.07114915526810    8.78396693619792   -2.40498451622098
H         6.61386587024242    9.10887268303248   -3.28079628041890
C         5.84844989064193    7.43371177412009   -2.20035117425844
H         6.22247364953840    6.71108818740505   -2.91230996388490
C         3.09077960071593    5.08671416214067   -0.25031342743873
H         2.77961607076721    6.06982729469812    0.13467826104001
C         2.08223449769589    4.61419836018235   -1.23082112398611
C         2.22023294114216    3.42299641391343   -1.94198270815729
H         3.09646709733072    2.80675900388351   -1.81186697766359
C         1.21071637774179    3.04642140097447   -2.80817996433256
H         1.29225608902477    2.12709121202608   -3.36956084902603
C         0.09807948362929    3.86285832263070   -2.94058004762150
H        -0.71088041966762    3.60410007414938   -3.60546347252425
C         0.05149161195302    5.02517340650193   -2.18782021474273
H        -0.79308460634110    5.69993417386635   -2.24520252920631

