49
CSD_code = QIWCOR | q = 0 | S = 0 | Stoichiometry = C16H28Cl2FeP2 | MND = 4
C        11.03473796488405    6.70376647936250   10.49441566312724
C        10.15121853498802    6.78503499955468   11.73769437210176
H        10.72385599046910    7.16691222942599   12.58101693525601
H         9.75988568088297    5.80314611502901   12.00287581915956
H         9.31580265200379    7.46134638854145   11.55767018882779
C        11.58750523326810    8.08965399424973   10.16200866105543
H        12.20297696597772    8.46072239278183   10.97960318760967
H        10.76683553982182    8.79045386850072   10.00767311266269
H        12.19587069292710    8.06364529447061    9.25905358976125
C        12.17394963924162    5.71672296461458   10.72799857591550
H        12.85046554609669    5.67499371371246    9.87758451223435
H        11.79340077426925    4.71937180111115   10.93705481381713
H        12.74986705674893    6.04181877174811   11.59391329392096
C        11.04723735808126    5.71568672685247    7.72427444291135
H        11.72419040510019    4.93010312208192    8.05280576036599
H        11.61561814000724    6.57742218288620    7.37586789086740
H        10.43582932849609    5.35396843072993    6.89653790970390
C         9.13191576591227    4.69404876609748    9.58652576588657
C         9.78756749888193    3.47382917785815    9.68612524163230
H        10.81098787968561    3.37141443824332    9.35809659367990
C         9.12907371696895    2.36913436389551   10.20130048155132
H         9.64408233705970    1.42235876722031   10.27343387690276
C         7.81992047893064    2.47983669774353   10.63741858632850
H         7.31755030401381    1.62360797190680   11.06311081346088
C         7.14653052881959    3.68420018271902   10.51434533465624
H         6.12344582204109    3.75528940135823   10.85225011863948
C         7.78601701452186    4.78721011728804    9.96512692710957
C         6.01217244217850    6.69857396926744   11.13746253176502
H         5.38008818034025    5.85179059157750   11.39736652427446
H         5.40998906846072    7.59498473662448   10.99313951193743
H         6.72128176621732    6.89446225977951   11.94222450216237
C         5.71749626811532    6.01615659223259    8.27968927625060
C         6.46738105534288    5.30589522888519    7.15393137877620
H         6.77908598722979    4.30888824273116    7.46211460694969
H         7.35738058201008    5.87657375290875    6.87882694838389
H         5.83307729789459    5.21329077541683    6.27409989480262
C         5.24459332582524    7.38979512733454    7.79813301414492
H         4.53923313571388    7.28845734316945    6.97482752454806
H         6.09711540279713    7.98024574281223    7.44698647384064
H         4.75784310529889    7.93940481929628    8.60284466549962
C         4.52721237108799    5.17921616484979    8.73400145364500
H         3.96877754899473    5.67660041649613    9.52364679614610
H         4.84499706983221    4.19875773316379    9.08019377729897
H         3.85318045021071    5.03149022712442    7.89047443986831
Fe        8.37793085890221    7.76577423392344    8.71340266230395
Cl        9.09367162388997    8.32721541706601    6.92957487223143
Cl        7.99705067971542    9.25895885002979   10.12063460616554
P         9.90181568055124    6.26968363308975    9.04744578435758
P         6.99328724929109    6.40338478223883    9.61889628550010

