74
CSD_code = QIWDEI | q = 0 | S = 0 | Stoichiometry = C33H34BrN3O2Pt | MND = 6
Pt        5.10373049127270    6.38353159975687   12.79345643723542
Br        4.06904041254350    8.65230859067756   13.54565912467886
O        -0.40626893014208    6.90737659794681    8.27314592594532
O        -0.10098090931279    4.82177252030896    7.84248935603363
N         6.89083040505488    7.59752438022776   12.57186680708481
N         4.99013318114394    7.25035955382395   10.68423318334319
N         0.04755211644037    5.80805165617761    8.54212700461947
C         6.01358447297483    4.66607275977163   12.07402575413416
H         5.26478173209060    4.03596831195062   11.58826427588263
H         6.71108713915168    5.00112402289191   11.29908732814843
C         6.76692923509711    3.86812113667278   13.15572196637359
C         6.29495504648691    2.40700292533374   13.15111435602655
H         6.44030922074789    1.96759906638610   12.16617232383747
H         6.85260418763588    1.81653259237284   13.87365534256170
H         5.23972226060629    2.35095281358876   13.40864187059293
C         8.27632823023707    3.90974495502855   12.87344585616163
H         8.49148010113712    3.43974387795580   11.91562827082902
H         8.62918937039423    4.93876795414586   12.84125006191460
H         8.83090617336374    3.38129144010861   13.64517346995493
C         6.48676748762680    4.48810538078933   14.50979117918974
C         5.67171147075597    5.61975107421786   14.56910711915331
C         5.38510120508798    6.20916501945112   15.78895138873176
H         4.74773828409205    7.07980720176103   15.84884426832138
C         5.91833133909108    5.68657642889259   16.95774179869318
H         5.69228041539313    6.15429815539644   17.90460696780285
C         6.73304642778731    4.57045182395502   16.90630599825927
H         7.14923903439929    4.15977051565022   17.81479109694729
C         7.01190455198854    3.97471504452562   15.68924198445379
H         7.64491563922367    3.09941917239496   15.66038010467484
C         7.81732851033486    7.74180266863604   13.49323328471435
H         7.89659529673848    6.94615069181521   14.22436527426958
C         8.66532897346030    8.85020623965467   13.58279278725985
C         8.53196098749070    9.86241764219421   12.64223127557770
C         7.54915135679430    9.71325418389689   11.63505733591509
C         6.73922908790256    8.55919221406116   11.64275280282350
C         5.72785684862235    8.37681153855864   10.64087325624477
C         5.54390482324142    9.35072188284606    9.63773558607248
C         4.55777788057345    9.12809109978577    8.64765693508573
C         3.90513325542264    7.90317378829233    8.64479812819106
C         4.16065431966374    7.01328150339188    9.69410962677065
H         3.65172723206999    6.06026340722237    9.71713623456054
C         9.66424256942713    8.89633649043872   14.69721350768313
H         9.58592476250262    8.00121552043200   15.30873271446022
H        10.67929490974668    8.96006114886842   14.30711364163633
H         9.48647870688215    9.76091097359515   15.33477205208059
C         9.38359019967230   11.09165569794024   12.67395151962638
H         9.93508158091779   11.19407481123747   11.73985303755835
H         8.75696213066918   11.97434236374267   12.79614238997907
H        10.09538962045120   11.06170847405505   13.49114893973371
C         7.32263997050930   10.68218091895588   10.61625985660767
H         7.92747307758480   11.57435019803875   10.60329760218611
C         6.36947309676306   10.51073902828072    9.66992140984965
H         6.23620327390103   11.26437116828473    8.91058682756483
C         4.25411004779446   10.18041950624671    7.62969395285106
H         4.17849020062292   11.15594205920589    8.10492455346216
H         5.04634567721862   10.22527008709849    6.88158832313023
H         3.31577272408418    9.97510692489962    7.12561872056192
C         2.93199529626154    7.50255995087809    7.58187166420594
H         2.75656862940524    6.43007077451557    7.61912327628773
H         1.97611818794037    8.00850548342257    7.72190486665727
H         3.30767253419507    7.75287109994562    6.59218499815005
C         3.30503966816557    5.36393794261974   13.17392402306726
H         3.48658287480284    4.32039466095472   13.44485670972720
H         2.86345422665025    5.88943494661227   14.02689065026111
C         2.43621197045237    5.46512395094355   11.99667437431719
C         2.30983132732728    4.39427009003960   11.09610397383238
H         2.84488077074403    3.47616612237176   11.29041863976527
C         1.51205519288921    4.49196382263665    9.97921192561431
H         1.41139336202329    3.67177837119246    9.28416096628703
C         0.82512251238952    5.67962920585092    9.72862543362788
C         0.91036228094059    6.74700694304689   10.62248990778997
H         0.34921731785189    7.64662703017478   10.42128160086364
C         1.69335477283039    6.63132596685056   11.74614203966165
H         1.74596816206460    7.45217483289846   12.44455275207852

