62
CSD_code = QIWDOS | q = 0 | S = 0 | Stoichiometry = C27H30Cl2N2Pt | MND = 6
Pt       -0.27975609997557    3.50820525779213    9.51102648573326
Cl       -1.49641779324491    4.76153779778408   10.99104056935629
Cl       -0.38416564068584    5.20490981960564    7.70143334169857
N         1.02860843165674    2.59562530232941    8.20738874135179
N         1.59124182994604    4.58284745268174    9.96041637734094
C        -2.02888232798577    2.62889064374819    8.83923291429537
H        -2.81854486351095    3.37782911238179    8.96540656756990
H        -1.86288424204672    2.50582749751844    7.76113321926104
C        -2.51645886244342    1.30199402335648    9.43859749875681
C        -3.57710461695038    0.77393791963114    8.45386287529526
H        -3.13703628934170    0.49949980859675    7.49725962343375
H        -4.09834778708709   -0.08519477060727    8.87009308040015
H        -4.31179933884702    1.55485664968393    8.27087141621563
C        -3.22775001889440    1.53376892360882   10.78663620997217
H        -2.77167170492604    2.34481748911252   11.34323597708530
H        -4.26480557472253    1.80799106927069   10.60990027158322
H        -3.20976814418629    0.62882117802701   11.38997909868133
C        -1.36636304534366    0.31709137406683    9.60924096158634
C        -0.19770256440181    0.69851971550615   10.29911616480207
C         0.87498977433081   -0.19166106912094   10.35566998291881
H         1.77587669139842    0.11267024938221   10.87099649887308
C         0.81023110126791   -1.44990430333611    9.79046835125446
H         1.65529733570225   -2.11992640159118    9.85348486397461
C        -0.35303234279923   -1.84238333968843    9.15698524616985
H        -0.43421475719615   -2.82829788135488    8.72285796154077
C        -1.42019518257768   -0.96289913347839    9.07042253824300
H        -2.30777254412632   -1.30215873281571    8.56225159415235
C        -0.05498148988079    2.01842106023015   10.94341246132459
H         0.94345977253810    2.12932389239404   11.37870375013985
H        -0.79119261446687    2.16811884712829   11.73096365259973
C         0.79338166499020    1.57486101037200    7.41285920355219
H        -0.11044501791066    1.01248444643528    7.60173335864429
C         1.63727912106389    1.18444976213000    6.36979841195017
C         2.77722031274689    1.93669798637086    6.12144401748253
C         3.05058786383860    3.03015992101046    6.97704142512558
C         2.15722910688410    3.31352193113485    8.03122467059060
C         2.43175384136600    4.39665408866379    8.92903310028026
C         3.54592399936348    5.23486015190248    8.72373431835096
C         3.73659788901547    6.33329525541114    9.59704017682992
C         2.82491138089645    6.52141599208520   10.62638884348327
C         1.77874735285087    5.59961991743539   10.76589738322112
H         1.05878835199039    5.70606937647351   11.56836764211831
C         1.25710942699456   -0.01756918366448    5.56141202762385
H         0.36909471864639   -0.48280928087130    5.98020584195856
H         1.04653716606326    0.26171711188248    4.53001449678544
H         2.05995327959990   -0.75270099729749    5.56148895851066
C         3.70176594891224    1.62612567727535    4.98713611565087
H         4.70848281744521    1.43850507762087    5.35822145760776
H         3.37158360809269    0.75523192745577    4.43280276648715
H         3.74603397853199    2.47173079975852    4.30198013123325
C         4.18299047037448    3.88032813533245    6.81451914104281
H         4.86588138576894    3.68356690621022    6.00384329447409
C         4.41051210145634    4.93581128692669    7.63259705564917
H         5.26594531179556    5.56802617586841    7.45583090789691
C         4.89409625602450    7.25782311033944    9.38317101641134
H         5.83159214115476    6.70339314241214    9.40971855655207
H         4.81152007615612    7.73776252330665    8.40863364321475
H         4.93140085623601    8.03074331615537   10.14243111430596
C         2.90864462271524    7.66114801907469   11.59341158056761
H         2.08664144935767    7.61131054983954   12.30224566234845
H         3.84545225936223    7.63326117833826   12.14905655489474
H         2.84882916701156    8.61342523278628   11.06862882953898

