59
CSD_code = QIWJAJ | q = 1 | S = 0 | Stoichiometry = C28H21Cl2N5O2Re(1+) | MND = 6
C         6.04107640616750    7.74939322747224    1.48916369277393
C         4.41136139572824    5.49734472388168    1.28023058599506
C         3.68697428869618    7.52616385991873    2.99852235807000
C         7.54678203862850    4.56802259977985    1.59687198212893
H         6.82195948487286    4.44543909208847    0.80369078718181
C         8.76980261349306    3.92863760096014    1.53038690494559
H         9.00509822902777    3.30234881544365    0.68635677231298
C         9.67695986963181    4.11695344865586    2.56290996304675
H        10.63988768415897    3.63185465662878    2.55167279820477
C         9.32776952167500    4.95878993754359    3.60126927940098
H        10.02818434228531    5.14330519174417    4.39859840496753
C         8.07963320459808    5.58014055197649    3.59486906194223
C         7.66831595954359    6.55735797000315    4.61094746349882
C         8.43137506802999    6.85760847851580    5.73928269766590
H         9.34758462232218    6.32714619335872    5.93734096537361
C         8.00771377198384    7.84434101060854    6.60951034856069
H         8.58926815063394    8.08868681622479    7.48436190492142
C         6.82817385522933    8.51792852026908    6.32642561209699
H         6.46888285810170    9.30934575838439    6.96341955181095
C         6.11227213309176    8.15126640545754    5.20211864221568
H         5.18678494671527    8.65334014002931    4.94982906554177
C         1.61599942083526    8.95635461673490    3.14400054664811
C         1.27051363404930    9.76581153486720    4.22604891485083
H         1.91544057165683    9.81514829758823    5.09023227941856
C         0.10605590814708   10.50478377154671    4.18391765874582
H        -0.16996154166199   11.13500228646731    5.01385350307784
C        -0.71481949462471   10.43641879409988    3.06409102494540
C        -0.37133346765533    9.63101757315659    1.98294449367330
H        -1.01517890596492    9.58895883126878    1.11929179160991
C         0.79079853810136    8.89028562634451    2.01894288379009
H         1.07529639015924    8.26095794101755    1.19034127885807
C         4.68209857117679    5.05395384691029    4.32899402594925
C         3.75503899966086    4.54897430286657    6.42429957580517
H         2.70373505337642    4.26160175335210    6.51603117173170
H         4.07953950974541    4.98445140465014    7.37332517147527
C         4.64666083574610    3.38948537944936    5.97091972500187
H         5.49126956393672    3.22329139041638    6.64476189469836
H         4.10231575881022    2.44873323990989    5.86142101602796
C         5.82294078903813    2.93775125088143    3.83182339414333
C         5.30529662566245    2.59331741823478    2.58766788931359
H         4.36781714354612    3.01980194860570    2.26587942188232
C         5.98426394884019    1.70522765985343    1.77588512638267
H         5.58493283501417    1.43671175246669    0.81130948947687
C         7.17994237636272    1.15175426858712    2.21299124042814
C         7.68860450124342    1.47147448851068    3.46510034524500
H         8.60973887256764    1.02414877365547    3.80193597613313
C         7.00880476776232    2.36135319821684    4.27375054058860
H         7.40795354479721    2.61374741892608    5.24496206483537
N         7.19110541897293    5.36353575004020    2.60460582742928
N         6.50380475039620    7.19074508773117    4.36819711106676
N         2.75732220183339    8.22215184971196    3.18145300214544
N         3.93511237420623    5.49868060242586    5.33758298815781
H         3.42266160965331    6.36404574807654    5.30733583957174
N         5.12160282826734    3.84099909954461    4.65864085443402
O         6.48694458414874    8.53918638854975    0.79852459208613
O         3.90922652757108    4.94096578057016    0.41085230407290
Cl       -2.16641276727009   11.35645773099073    3.01497526685960
Cl        8.04409113635856    0.06220441787275    1.19563852399531
Re        5.32571614082543    6.41379377696425    2.73259240277841

