57
CSD_code = QIWJIR | q = 1 | S = 0 | Stoichiometry = C28H19Cl2N5O2Re(1+) | MND = 6
Re        0.38260388553527    3.02055572228773    2.53993757455343
Cl        4.28579773543662    0.62567200276652   -2.89934459851452
Cl       -0.81179493057573    4.11605413452516   11.36842515146701
O        -2.29242291284753    1.46331367363863    2.68460987395473
O         2.01239652999315    0.49302506784745    3.26310989193114
N         0.38402986565920    2.71410049550089    0.41619369882015
N        -0.61841701152410    4.76246195494170    1.73233284090412
N         0.07465032082061    3.77898087723985    5.60628056744291
N         2.27422328645529    5.43626465989293    3.13144313352279
H         1.73109090231299    5.61307326512747    3.96276223335305
N         3.06061274010042    4.46807350896738    1.40312351451316
C        -1.29660675782514    2.01629006075493    2.64098212342872
C         1.40734116974404    1.43892576702341    3.02601048769020
C         0.21926772586754    3.47565619658492    4.47956359136238
C         2.11292220794125    4.34480367312186    2.35558716805867
C         3.29653285644000    6.22757591741485    2.68545049676237
H         3.58599185477333    7.13619931360849    3.17014053799327
C         3.79010833323788    5.61836451498790    1.58433403699340
H         4.59638486903321    5.88508396579306    0.93369609759649
C         3.34867528576162    3.54149037597936    0.37249032772159
C         3.70535411452584    2.23775438479549    0.69364247551919
H         3.75738545175143    1.93733790075545    1.72866465537705
C         4.00201741626235    1.33984255659742   -0.31401290561891
H         4.28365562717708    0.32764061372014   -0.07332161378070
C         3.94252330232552    1.74901114557959   -1.63994962937894
C         3.60447325996539    3.05742869415447   -1.96182801754740
H         3.57600113586900    3.36826143807076   -2.99363146476224
C         3.31103131102355    3.95499341319238   -0.95343263946151
H         3.04759122255421    4.97487451314661   -1.19425203057908
C        -0.12977109519586    3.86140956930453    6.94608083625755
C        -0.49503393381521    2.71697038901837    7.65861564963219
H        -0.60839449348001    1.78108447012182    7.13438932806445
C        -0.70443813170854    2.79969558146186    9.01871954960746
H        -0.98702938967222    1.92270613757879    9.57837426187156
C        -0.55066417372676    4.01833500755525    9.67198022221321
C        -0.18745345918718    5.15851843042594    8.96453917695351
H        -0.07103080995833    6.09684722212190    9.48238095198703
C         0.02221336468159    5.08234316205294    7.60288417672425
H         0.30345290318811    5.96388051992061    7.04696456486255
C         0.75753775755479    1.58579277348370   -0.18629545216963
H         1.10599336618846    0.79047735711858    0.45846630106290
C         0.70509108162399    1.40272424549807   -1.55462669625213
H         1.01290316287744    0.46455519192277   -1.98479273254013
C         0.24612902459305    2.44328786381305   -2.34885793119305
H         0.19365563539888    2.34210544124560   -3.42100665417319
C        -0.16512898477254    3.60970374478349   -1.73318012436666
H        -0.55367415705550    4.41961897287214   -2.32746138103746
C        -0.09620701067900    3.71822830637241   -0.34489727068242
C        -0.59937964232653    4.88573411808875    0.39022341555084
C        -1.06909741169109    6.04063191878329   -0.23506292487752
H        -1.02489098635953    6.13932448299517   -1.30660044317488
C        -1.59501535952506    7.06645719899461    0.52725810409312
H        -1.96426552561462    7.96371863521653    0.05655638265364
C        -1.64686255957425    6.91069945384593    1.90501551453829
H        -2.06764754449473    7.67326839152806    2.53932011655401
C        -1.14217673747929    5.74843777634551    2.45732553885742
H        -1.16623568787552    5.59223382923816    3.52867993974779

