46
CSD_code = QIWKEN | q = 0 | S = 0 | Stoichiometry = C14H25BrCl2CoNP2 | MND = 6
Co        1.81449777144108   10.85695225756855   19.02489484637504
Br        3.68085444102018   11.65439301806145   20.26654446304881
Cl        1.92741073064628   12.65728292692048   17.63502242402995
P         0.58190305936996   12.00524480746681   20.45519484349328
P         3.30143543954004    9.77974110023188   17.79564196739354
Cl       -1.24867995820189    6.41746731996790   19.61274681683185
N         0.31558456795509   10.20682067752789   18.03599470383210
C         1.56596687906029    9.27423215678066   20.09479210933832
C         0.47568489072413    8.52153161950755   19.61132875622699
C        -0.16270201665036    9.09891454136041   18.47475252297899
H        -1.01710376104146    8.62026349728074   18.00143622369189
C         0.09841784016057    7.32575039541395   20.22825190405904
C         1.86394701650838    7.59674020529137   21.80516541089398
H         2.40885189553143    7.23521014318601   22.66503998034426
C        -0.29981656127253   10.81970622970104   16.89247470676431
H        -1.14312676730671   10.22425908208669   16.53005223172739
H         0.43549846392774   10.94004019955884   16.09621124565812
H        -0.64040190739090   11.82343718862817   17.14873286647373
C         2.24868619869709    8.78275710021812   21.20358046077618
H         3.09097881532330    9.31971863094282   21.61319203609051
C         0.78896979043476    6.85893318629617   21.32583559544956
H         0.49659616584773    5.93608881023216   21.80154462860964
C         0.83919736489934   13.80932490112857   20.47787806651755
H         0.16769372238161   14.26320313502278   21.20726358635616
H         0.64973000589293   14.21364897547306   19.48489325763440
H         1.87589138697101   14.01460802507852   20.74310488641218
C         0.75213679488017   11.60093230184969   22.23109652906369
H         0.12822603848098   12.28000858005711   22.81162722480474
H         1.79217169753223   11.71660626232797   22.53072200507266
H         0.44070795056672   10.57340053003263   22.41003730990809
C        -1.24058574653474   11.89838961986125   20.26655491867887
H        -1.72170119242637   12.47196839878887   21.05845064792511
H        -1.55842916216514   10.85842926702450   20.33025342026838
H        -1.53783595783972   12.30504909710688   19.30171151082878
C         4.50029383002928   10.81132829994776   16.89020082464331
H         5.17012745514253   10.17121317324249   16.31538340266990
H         5.06927958165124   11.40259044455862   17.60696712664115
H         3.96498097591908   11.49082495280417   16.22916136944605
C         4.41629362790430    8.60869440082746   18.65106766174178
H         4.96191965998701    9.13359545306844   19.43339384688775
H         5.12092704969513    8.19698492965576   17.92878101566631
H         3.83667752298102    7.80294427203567   19.09845266970289
C         2.65890777480995    8.70272620448766   16.45572908383549
H         3.49102334709298    8.20114735977491   15.96240193461968
H         2.12021797594988    9.30206298739388   15.72407570467258
H         1.98439530186779    7.95633333422299   16.87366125190359

