34
CSD_code = QIWKUE | q = 0 | S = 0 | Stoichiometry = C14H12N4NiO3 | MND = 4
Ni       -4.22647802886090   10.05187659606846    7.03519960620477
O        -4.22681884243790    9.59116783225163    9.56388630969269
O        -3.54526818485223    7.86847150827279    8.44629141898090
O        -6.16538311574124   11.79437455791828    6.72882876351403
N        -3.98554614310226    9.01081366371482    8.50519200155347
N        -2.76603512018576   11.60201274564146    7.41620281596880
C         0.74370893208203   11.81914231899610    6.25620469954287
H         1.59032561458675   12.48216348744645    6.35769420073478
N        -2.58101374568995    9.34596345077627    5.94055713973990
C        -2.87182212986049   12.67849586826227    8.17906597447099
C        -1.79851654021470   13.57544114709384    8.32837669333028
H        -1.92925175829147   14.44969871606991    8.94688632873450
C        -0.60591336559806   13.33301312093267    7.69961664825745
H         0.23021528230526   14.00888025153868    7.80626870688906
C        -0.46659512231169   12.17486102700371    6.91471069189483
C         0.83895103585812   10.67831590266507    5.53004586152772
H         1.76241658856558   10.40949516231036    5.03866548368107
C        -0.27252303523290    9.80007673336750    5.40110209066831
C        -1.49086851283160   10.13130179529779    6.02688834894373
C        -2.52809120296415    8.21148417596499    5.26841699325047
C        -1.35057433836365    7.80361000415796    4.61869072340383
H        -1.34230592974599    6.86923247604592    4.07924821381555
C        -0.23122950862034    8.59292196337659    4.68002545720978
H         0.68428857807395    8.30004375045266    4.18666952292182
C        -3.76883353427374    7.38818167894445    5.25300401747496
H        -3.66492581062469    6.56939736342959    5.96545629590226
H        -3.96463817928784    6.97268972087923    4.26737845496635
H        -4.61582944211211    8.01122397966228    5.57511340697919
C        -1.59323864913775   11.33573504948260    6.80123077607215
C        -4.16506504167112   12.90351616863069    8.87867202081374
H        -4.88539560968437   13.35224716158092    8.19351975861252
H        -4.04212324907246   13.56033646570526    9.73467405217329
H        -4.57078780872289   11.94379773012979    9.20650602912074
N        -5.61353408198115   10.76271642592801    6.55391049295383

