48
CSD_code = QIWKOX | q = 0 | S = 0 | Stoichiometry = C14H27Cl2CoN2P2 | MND = 6
Co       -0.06015683146713    1.49472478201943   16.55185536851731
Cl        1.63903717469891    1.94372147254543   18.01760275736885
Cl       -5.48625817164124    1.57319526717324   16.71201385102889
P         0.24903422203682    3.49282818952114   15.71274689773841
P        -0.12140771176305   -0.49027741375929   17.49099311313378
N        -1.34224834516241    2.20482753336418   17.92135171551321
N        -1.00552032600122    2.80364159020030   19.07230772847457
C        -1.64324446752664    1.14986230246280   15.54002464193348
C        -1.82944965570446    0.64137782600768   14.26189998802682
C        -3.09775936227376    0.42727634519528   13.74495536272227
C        -4.22850261599751    0.70845389429715   14.49417784815729
C        -4.06748781712358    1.21880367056185   15.76606348973784
C        -2.79885377378292    1.44980303430663   16.29608158178980
C        -2.56898720401320    2.00240322459069   17.59911977449410
C         1.13418803683948    0.75365927162017   15.15100249155264
C        -0.67027099406019    3.96037645299381   14.19851786787622
C        -0.16901296569126    4.89550932801645   16.81215972843695
C         1.95837422755379    3.95361487956741   15.25461129676272
C        -0.64161158482911   -0.55423569899402   19.24980581160690
C        -1.21821547170803   -1.77470154704527   16.77864920997776
C         1.45631275613231   -1.40664082617385   17.61189977558777
H        -1.66855745847257    2.75109680318105   19.83934097334647
H        -0.01732537865084    2.66286117594569   19.28470807751969
H        -0.98091811026729    0.40002927175028   13.64091352086908
H        -3.21144567179120    0.03188361560980   12.74549595173727
H        -5.21675716169933    0.53602815793621   14.09723308837516
H        -3.38783869311551    2.25584093701286   18.26953462984343
H         0.90344904603569   -0.28697794144900   14.91316019235711
H         2.16535772079554    0.79382103175792   15.50439822447012
H         1.08340981905894    1.31167983928220   14.21373160455007
H        -1.73789439709670    3.90637711955091   14.40107615041041
H        -0.43704856668173    3.25850092173374   13.40136630904119
H        -0.40345537809495    4.97016798183484   13.88899154413431
H         0.06351183350452    5.83677587832050   16.31452954107344
H         0.41530894586561    4.80659786164387   17.72587917178334
H        -1.22741328098130    4.86571817777360   17.06225486709159
H         2.31115920741926    3.32425282458490   14.44145334534626
H         2.59713331608606    3.80101692957351   16.12249118415577
H         1.98852809199377    4.99997956701735   14.95126503119019
H        -0.58174587495515   -1.58032119309336   19.61187601587677
H        -1.66550871077729   -0.19811324612564   19.35021432784165
H         0.02645115959740    0.07556229387387   19.83505069673529
H        -1.10771563800922   -2.71273584477414   17.32152859645496
H        -0.96191279039502   -1.92375796379189   15.73213187941433
H        -2.25118599057247   -1.43724957625223   16.83215948464256
H         2.18562136096449   -0.77067058239039   18.10992296636866
H         1.82073515165569   -1.65155096074641   16.61744120516238
H         1.30729832995742   -2.32143665829877   18.18541111977299

