25
CSD_code = QIWNES | q = 0 | S = 0 | Stoichiometry = C9H11NORuS2 | MND = 8
Ru        6.20587643984661    0.84350377121018    2.89327642264714
S         5.66747455202052    3.17964177558183    2.44161262807348
S         6.45835947128706    1.23170492593321    0.50087826784372
O         3.36219160499477   -0.01646851598871    2.59479553899206
N         5.96409210752016    3.78256252685259   -0.15134694938492
C         8.39656382303422    0.38624344579036    3.18641938450424
H         9.20356809208727    0.46772144623279    2.47010136455749
C         8.02490732580143    1.36051841780537    4.12183919862343
H         8.49820421114167    2.32400489250031    4.25831647495128
C         7.01819047627594    0.80810939077895    4.97195754327174
H         6.64060404846578    1.26116478594493    5.87901051168962
C         6.80273633186002   -0.53543474037545    4.56145933943391
H         6.19360374552352   -1.26595266296548    5.07956986026905
C         7.62763466431904   -0.79213200300434    3.43174926162540
H         7.79167363046092   -1.75875375065300    2.97445704751129
C         4.45401637503357    0.33029374608327    2.69206392653832
C         6.02275285005946    2.85734874704653    0.80090494727211
C         6.26649179102898    3.48823424447858   -1.52969684382488
H         5.40546614188694    3.72946308771718   -2.15645463052336
H         7.12073831119743    4.08422029655882   -1.85894971128878
H         6.50244291999705    2.43209007545620   -1.63593116173187
C         5.58904960879225    5.14676189939499    0.12431399201368
H         4.72937243094902    5.42363365778947   -0.48937716849026
H         5.32823223536183    5.25001743987809    1.17500602343394
H         6.41985681108413    5.81680309999330   -0.10897526796504

