24
CSD_code = QIWNAO | q = 0 | S = 0 | Stoichiometry = C9H10O2RuS2 | MND = 8
C         2.77297886528255    6.47710623131945    1.78697840823516
H         2.76775234831227    7.49180476643593    1.41168323502264
C         1.80898218144303    5.91424458045809    2.68306066293737
H         0.94871606150887    6.42965889788911    3.09007596321623
C         2.29258131109550    4.64769760081630    3.09528784686550
H         1.83764166801814    4.01493058239235    3.84678698998124
C         3.54028382432943    4.41376078785689    2.45635226599086
H         4.22723470419469    3.61336273459472    2.69460051283120
C         3.84235625069082    5.55262527704321    1.67210979449914
H         4.76749168515917    5.72695387512242    1.13824860778786
C         0.57486496473817    5.11114483571264   -0.17142147412041
C         2.34507215577351    2.08931789815630   -0.54124498536547
C         1.85196477437497   -0.19518953231295   -0.80825658153236
H         0.77710123177174    0.02073180205415   -0.81865619225338
H         2.13894928215816   -0.45380096420497    0.21792961502390
C         2.20495196271576   -1.30481845001574   -1.77987931350041
H         1.92151511734556   -1.02007089539967   -2.78911911907546
H         1.67604451616167   -2.21169385688260   -1.50292402743915
H         3.27445315103147   -1.49396902778152   -1.75937736695600
O        -0.30953132252280    5.48765400823686   -0.79820858033244
O         2.56221580593131    0.98047010574939   -1.20267653297513
S         1.29470448381384    2.22823530425373    0.78221391135179
S         3.13422109446469    3.50896211447041   -1.00730666960603
Ru        1.98725388221513    4.56918132403571    0.87954302941567

