16
CSD_code = QIWSEV | q = 0 | S = 0 | Stoichiometry = C4H5ClI2N2OZn | MND = 4
I         7.03306568542394    8.17708277488653    8.81807257155617
I         9.80651511055569    5.32378166513816    6.14327546346676
Zn        8.23661651920684    7.11577997074256    6.90231033751863
N         5.59714502404312    8.34508369213520    2.85468665148991
N         7.01214722970821    7.60915065334927    5.11000170912648
O         9.61071408974370    8.92346448351646    6.39735819037141
H        10.51059084594447    8.79707785818974    6.07876704701894
H         9.59777940929535    9.72926769474941    6.92452104255491
C         5.31276614149521    8.84903859117636    4.04110506211212
C         6.02137213875571    8.48337200993902    5.18852060256516
H         5.77913268852195    8.89877151171055    6.15594484923221
C         7.30344859346088    7.09578802143656    3.91570796955369
H         8.11208919855073    6.38209863227093    3.86407136215834
C         6.58611665731534    7.47080492194124    2.78920420068721
H         6.80515661793106    7.06606501853837    1.81198432494227
Cl        4.03684405004791    9.97857250028049    4.13546861564296

