78
CSD_code = QIWWID | q = 0 | S = 0 | Stoichiometry = C31H43ClNPPd | MND = 4
Pd       -3.35192846518825   -2.97641869493344   -2.49372086277335
Cl       -3.87031978635201   -3.34983753678916   -0.19480045337563
P        -3.51252634914226   -0.71885715312762   -2.18685912285441
N        -3.11392750203143   -5.12757390627794   -2.75765163697818
C        -2.66469035877771   -3.01836370311497   -4.37703217972895
C        -1.89907439780126   -2.06994832415147   -5.04275354700761
C        -1.31249018317383   -2.34051024696677   -6.27007962228403
C        -1.45173051001543   -3.59002632950396   -6.84405579676180
C        -2.16488268792603   -4.56785117968257   -6.17435054038476
C        -2.77841916609325   -4.28811119882130   -4.96015527209770
C        -3.48403022539966   -5.37821126754006   -4.17754671250018
C        -5.01163846875148   -5.45059102009180   -4.51529735351761
C        -5.60845651834563   -6.82690943751083   -4.17928278579139
C        -5.81918627849782   -4.34382160975600   -3.83347656248360
C        -5.18133179759372   -5.27654847424088   -6.03375205070078
C        -1.66616806600924   -5.34257992590330   -2.61614441102085
C        -3.74237014185917   -6.04906964513063   -1.81287896288944
C        -2.26698764479593   -0.08904959115060   -0.98648690416389
C        -2.46402759399659    1.17324694961729   -0.42014095991577
C        -1.59807835481317    1.69311826671558    0.52073235366039
C        -0.49583181163771    0.95396868065172    0.91371428879374
C        -0.25930965042437   -0.27148444393914    0.32425839306979
C        -1.11566720617227   -0.80528692793844   -0.63538311057963
C        -0.75810349646983   -2.12102788769133   -1.25078766540812
C        -3.27466774082295    0.48641880920792   -3.57354590662559
C        -2.29385037258467    1.47368455082392   -3.47448082204296
C        -2.08191330467857    2.39410633464878   -4.48362732038123
C        -2.84337013164695    2.34242181775508   -5.63669219847084
C        -3.78278754396598    1.33956666799632   -5.77321936311029
C        -4.00192485908134    0.40367704724910   -4.76963973413846
C        -4.98384194840726   -0.69120371204626   -5.03731890299724
C        -5.20812246617409   -0.23333191614856   -1.43383794435689
C        -5.71861309017075    1.11677816899738   -1.94213276485529
C        -6.21153458032519   -1.32339566965882   -1.83111468394867
C        -5.13582044049164   -0.23681809531885    0.09604610687748
H        -6.14600568941184   -0.18487499247782    0.50054337025354
H        -4.57362325943064    0.59854657390587    0.49952717313571
H        -4.68088592893617   -1.16065222244095    0.44663614946027
H        -1.74047072138160   -1.09095087938856   -4.60858309126293
H        -0.73286744151978   -1.57435902285428   -6.76575645253920
H        -0.98748001241300   -3.81273819064229   -7.79380181216892
H        -2.23545230125469   -5.56169903527214   -6.59553256526906
H        -3.06340124680443   -6.35753178266373   -4.47184049252983
H        -6.56782557014768   -6.93269552643503   -4.68247878149785
H        -5.78406435451428   -6.96864673510729   -3.11909757217401
H        -4.96059101424621   -7.62724716622744   -4.53229249455374
H        -6.88270879249697   -4.52586590708606   -3.97993913787241
H        -5.57598223592164   -3.38400598463818   -4.29155477578564
H        -5.63500767105424   -4.29063956032512   -2.75623379111799
H        -6.23745693709628   -5.33232083514930   -6.28875892390702
H        -4.66098941330026   -6.06276334039195   -6.57540924078210
H        -4.80155665449319   -4.31598292976919   -6.37030679434054
H        -1.41430329860809   -6.39325047457001   -2.82529864318915
H        -1.36623447394120   -5.11894529276480   -1.59029811354919
H        -1.09679934595010   -4.71253998497156   -3.30142170174127
H        -3.57553253925992   -7.09058392782765   -2.11554534810798
H        -4.80703958909233   -5.86069712528173   -1.71420325141003
H        -3.30507338163609   -5.89853842484415   -0.82558628386578
H        -3.29597210723133    1.77776649213654   -0.74573752674738
H        -1.78195301186194    2.67078911074741    0.94164984045152
H         0.18409353837023    1.33965782867087    1.65875110412907
H         0.61840632977260   -0.83470569603985    0.60860472118232
H        -0.82296378747225   -2.07329336946332   -2.34570716563399
H        -1.44879346309481   -2.88719289836210   -0.86884303449020
H         0.25475088233965   -2.40749962226658   -0.97267441075032
H        -1.66544290259609    1.52663668969618   -2.59977118602527
H        -1.31577867810116    3.14631268164620   -4.36682430152467
H        -2.69156604880205    3.06025215132188   -6.42887749283421
H        -4.35907782671931    1.26463479834514   -6.68478344824970
H        -4.83341698563059   -1.08357293500951   -6.04240899871547
H        -6.00932673301322   -0.32634906626038   -4.97454081832340
H        -4.83124226476252   -1.49661899214880   -4.31849181281894
H        -6.67077919081531    1.33675863778505   -1.46019740727848
H        -5.87876708451825    1.10332267771485   -3.01714694263671
H        -5.03648525337243    1.93331911563876   -1.71876305259550
H        -7.14526337104205   -1.17364784540457   -1.29016689940399
H        -5.81889575855239   -2.30379098336640   -1.55277242124075
H        -6.43925127036788   -1.30845540440137   -2.89287115993351

