24
CSD_code = QIWXUS | q = -1 | S = 0 | Stoichiometry = C10H6BrNO5Re(1-) | MND = 6
C         0.73654596079832    0.64476397079766    1.86716104978415
C        -0.37145479787259   -1.91176311439410    1.67622458101856
C        -2.03478076687645    0.35038963197628    1.56902967832529
C        -2.01722948074590    0.88063173671019    5.14000037100950
C        -2.39544143594425    1.75701426032154    6.26748077064308
C        -2.22209617462282    3.13118732686582    6.10534672566074
H        -1.81988431594406    3.49084075424028    5.16993396606701
C        -2.55524630958601    4.00583752619869    7.12017188960016
H        -2.41967014305062    5.06919912144860    6.98115947051597
C        -3.05890528915288    3.52148926727668    8.31674478254871
H        -3.31864631116390    4.20378402692606    9.11399649417491
C        -3.21565348695111    2.15643889004168    8.49362170681962
H        -3.59127938854296    1.77385244201673    9.43264236416633
C        -2.88577947285923    1.27600503863538    7.48009871539417
H        -2.98571129707897    0.21388894321895    7.65348385854902
N        -2.57664345329620   -0.31869413478542    5.07287875017063
O         1.57477535870549    1.27073694153411    1.37711027867246
O        -0.20998792268598   -2.88275963620880    1.07100197572591
O        -2.83603969473663    0.76588902174184    0.84971998026012
O        -1.21881914659331    1.28958936236639    4.26173907966195
O        -2.33507608364934   -1.18207906003116    4.07358627875064
Br        0.90303296476813   -1.14719605155037    4.56268827300902
Re       -0.67618253766353   -0.33557325194672    2.75692527066959
H        -3.25212677525532   -0.65367301340001    5.74935368880315

