37
CSD_code = QIWYAZ | q = 0 | S = 0 | Stoichiometry = C18H11O7Re | MND = 6
C         5.17696688288011   -4.62554720160003    4.59003247648567
C         4.44068457294072   -4.08733880297328    1.94339874637515
C         7.03973822565917   -3.52275294942790    2.83488419415041
C         5.41612921940897   -0.19972166693432    3.12878612608111
C         5.73502396869390   -0.42234446054680    4.53409014356981
C         6.01222492527653    0.67072487531881    5.34679528697372
C         5.70505606397567    2.17848763084294    3.56005924218322
C         5.70680024048531    3.51171197165392    3.13000726335515
H         5.93829061517202    4.28481356122915    3.84568346784444
C         5.41915184547722    3.80437870138375    1.81982460235320
H         5.42202030272726    4.83217690622112    1.49005088835603
C         5.12299225409191    2.78703749782433    0.90655118686487
H         4.90078283052610    3.03851796618819   -0.11895539773265
C         5.11731381698298    1.47857506216384    1.31346828365046
H         4.89477130904462    0.67242301473791    0.63088732336673
C         5.40907152567780    1.15204052011039    2.64780219705857
C         6.32827859162968    0.61511898574772    6.76734994720522
C         6.60350613572183   -0.59279624847689    7.41604564331786
H         6.58976234147640   -1.51466824878921    6.85793854392430
C         6.90567141399388   -0.60869377864061    8.76367728120560
H         7.11956238175080   -1.54994905098773    9.24830878676087
C         6.93922977689639    0.56894185716695    9.49232764224011
H         7.17454016056131    0.55067130342635   10.54613429819956
C         6.67106655692742    1.77263369182494    8.85921106753495
H         6.69683016772921    2.69579001632204    9.41986991907565
C         6.37017756455526    1.79955300940699    7.51338164512619
H         6.16089071187072    2.73995604824593    7.02716371209674
O         5.11263756641063   -5.48091488173018    5.35394804974893
O         3.90526542582467   -4.59203330356876    1.06584521368512
O         8.12952838026607   -3.68289633171508    2.51939656058524
O         5.15491582698768   -1.19295832831913    2.40414699497216
O         5.70171126762939   -1.65173714620985    4.93914119572298
O         5.98639779466094    1.93553758022670    4.84470837681345
O         3.09622223247812   -2.30691672953574    4.26900976561321
Re        5.24039027547922   -3.08804526531475    3.40760824386853
H         2.42876030017438   -2.98789224508966    4.39859555312784
H         3.36183652795249   -1.97628356018591    5.13932552824216

