70
CSD_code = QIXCAB | q = 0 | S = 0 | Stoichiometry = C30H35ClNPPtSi | MND = 4
Pt        6.09129009837702    2.21852060563633    5.27490327178382
Cl        7.11629795976596    2.21274821027735    3.12012051649270
P         4.61243713688881    3.71343387202532    4.49643744631118
Si        1.75341514464792    2.63531025047845    9.23905871431049
N         7.45499534187590    0.80180848546338    6.02979093018134
C         5.26039779640398    1.97850141894555    7.09230866118539
C         4.00101433769633    2.36852364317605    7.52379218557993
H         3.38604404272175    2.98199979763405    6.87731731147112
C         3.47766764480172    2.00825532561711    8.76348048673718
C         4.26153599660482    1.21792268401595    9.59659166100488
H         3.88295484846150    0.91540388373416   10.56179126148037
C         5.52310192578235    0.80977392699481    9.20165770494677
H         6.12582267596072    0.19565877852375    9.85875655783708
C         6.01963350061414    1.18508623355075    7.96348713908303
C         7.40196578696988    0.80456606595235    7.50348110051064
H         7.71486406419040   -0.17224023259264    7.90094598692353
H         8.11023202746124    1.55611142782399    7.87234273119324
C         6.91631510047980   -0.45880273067838    5.51471096997179
H         6.86666592934899   -0.41298644234347    4.42508234739896
H         5.91442717744674   -0.62600702738292    5.91662521070353
H         7.55636761888141   -1.30331690791007    5.80429657568613
C         8.83320374455286    0.95990764057127    5.57134255153572
H         8.85294906619912    0.96830232865867    4.48166896061151
H         9.46441833617867    0.14149636571027    5.94049576602754
H         9.23551336474410    1.90929937189652    5.92687716150712
C         1.03575054649139    1.63272752807748   10.69534036562509
H         1.62395404603665    1.76786465336836   11.59753781073942
H         1.00941589743711    0.57031740126396   10.47366488424201
H         0.02087425600358    1.94632349721517   10.91968230759932
C         0.59737258121766    2.47176098609957    7.72664007279803
H         0.92653252763379    3.10655962547677    6.90962162135190
H        -0.42023841558892    2.75824824481811    7.97381519333048
H         0.57148237027384    1.45276116550735    7.35314780256057
C         1.88858205549979    4.47735963774616    9.72571142492232
H         2.48771883578289    4.60682080105052   10.62195269781750
H         0.91221974752931    4.91287326616059    9.91590967094985
H         2.36026948386691    5.05035847639530    8.93259663916731
C         5.01051167700940    4.63968537244293    2.98197791597011
C         4.81504668447997    4.01421270430255    1.75324160640628
H         4.39583227002456    3.01765086104291    1.72491006360288
C         5.17407256644618    4.65593896920164    0.58424084792683
H         5.02746789079002    4.16405097455262   -0.36619671850026
C         5.73482971683674    5.92275858971631    0.63178581304574
H         6.02086891612792    6.42112674591379   -0.28292823075734
C         5.93900102758141    6.54408375458585    1.85193768049974
H         6.38470457403050    7.52762991714168    1.89063303506033
C         5.58370551862274    5.90485595851173    3.02702793579708
H         5.75443305216557    6.38640567914502    3.98010354709430
C         4.31383179578298    5.05094235179738    5.69849619716261
C         5.41116141087522    5.38487614236458    6.48775861734048
H         6.33415974349528    4.82565102331267    6.35094090805856
C         5.31480887515488    6.38933016241512    7.43096520655420
H         6.16806761220910    6.64600110014391    8.04118760171274
C         4.11430273809856    7.06232235785657    7.59798542466082
H         4.03118555902839    7.84373118113950    8.33884143609330
C         3.01657248301265    6.72500830768478    6.82371401531953
H         2.07853938530163    7.24267692804230    6.96305155790902
C         3.11246577372722    5.72282615555934    5.87271790651796
H         2.24752531788146    5.45596726013506    5.28347150044245
C         2.99083881221755    3.00326338830596    4.08447025155806
C         2.00871719252594    3.71591084388533    3.40310410539875
H         2.20922040155425    4.72382086865366    3.06487569084872
C         0.78726085021753    3.12258277488497    3.13871876562957
H         0.02230963780038    3.67798599253892    2.61559197868081
C         0.54504789271771    1.81723063502754    3.53685162314007
H        -0.41125584251735    1.36055942391760    3.32870813760588
C         1.53253961899563    1.09394245715830    4.18608478542955
H         1.35001502629848    0.07023460380018    4.47771695546568
C         2.75273821094250    1.68500426789858    4.45713530779695
H         3.54600901133552    1.13757998795521    4.95809482895763

