76
CSD_code = QIXDEG | q = 1 | S = 0 | Stoichiometry = C29H44P2Rh(1+) | MND = 6
Rh        2.99399178014714    2.31538937134926    7.42807136273029
P         1.30496998943594    3.06048472510505    6.08450123647395
P         1.87223874396974    0.33359804963182    7.33712715462399
C         3.49234532468147    4.02845009835240    8.66981120346577
H         2.67284607200199    4.68474576109965    8.92575202445629
C         4.27378529429429    4.06466746195704    7.53261930894579
H         4.21468362554912    4.78620944858274    6.72999232791138
C         5.55566322129928    3.30277349435790    7.87286536443459
H         6.40602440735886    3.46086476707308    7.21638682217653
C         5.04076997132043    1.87042032658978    7.99120961739814
H         5.50122249749668    1.03818718802949    7.47676009577222
C         4.25478661861636    1.82886484919364    9.12393508278245
H         3.98317713352221    0.95432798751786    9.69986151015221
C         4.27892618770668    3.23904792722664    9.71376642928376
H         3.95769385859770    3.34197001281822   10.74602984806675
C         5.71371651760509    3.66583991092156    9.35923937880096
H         5.89833128111758    4.72650054390985    9.52504839934040
H         6.47477852238978    3.07431667601562    9.86682203475925
C         0.32683083798259    1.63351570844322    5.47761858443548
C        -0.71574577501921    1.75884366130978    4.56545457019690
H        -1.00784111456981    2.72948158770008    4.19772600313259
C        -1.40185992047812    0.64282851021393    4.12045360623671
H        -2.20005070248516    0.75412425934845    3.40299851613851
C        -1.06651458072003   -0.61186380980412    4.59940343693482
H        -1.60026760846472   -1.48429965795652    4.25553834922211
C        -0.06025748782743   -0.74635717979586    5.53978238354869
H         0.15905173450517   -1.73053084604356    5.92471232365101
C         0.64341079071502    0.36617474557653    5.98653881504112
C         2.00421426633571    3.86891101193011    4.55630768160004
H         2.78911046303690    4.53991875385786    4.93241332507731
C         0.88655192371234    4.74438402842776    3.99296887906846
H         0.17765654018809    4.14448391827890    3.42370507398268
H         1.29664826196123    5.49178893736347    3.31199412331911
C         0.21607564693802    5.41748240017152    5.18819775980731
H        -0.73529592311168    5.86450250032777    4.90141111813224
H         0.86480399575988    6.21819616795610    5.55030549947928
C         0.01397793470827    4.39189609604239    6.31701492805256
H        -0.95710814486474    3.89355814490793    6.20992842443957
C         2.64257782764349    2.88235279102346    3.58569940329825
H         2.83361037020788    3.38596232156394    2.63539098695805
H         1.95368035883878    2.05639360221262    3.39001393491891
C         3.95410244629336    2.34874078041627    4.14791126959843
H         4.31909092292684    1.51064614226502    3.56071105473312
H         4.71559717750852    3.12539376752566    4.14848002738594
H         3.80382875264387    2.00933681731010    5.18940611715806
C         0.06983787037959    5.02742245385691    7.70831456537420
H         0.96152992085186    5.65484934097463    7.78058217144663
H         0.14699111016818    4.23915064405507    8.46418558769866
C        -1.16343521542687    5.87466025532721    7.99814747069159
H        -1.10780744901381    6.29079453306073    9.00064953059433
H        -1.24232339401175    6.69772856622194    7.29317580785094
H        -2.06647908093461    5.27257457678237    7.92855990400544
C         2.45042905963013   -1.43715825323578    7.48589588677240
H         1.97777542348717   -1.99704198448018    6.67285404681788
C         1.91290283117756   -1.93460724311489    8.83383425488413
H         2.60399691140738   -1.64982092742070    9.63102228007749
H         1.83195600184027   -3.02167345657913    8.83697666116145
C         0.56158314592370   -1.27156458045012    9.07225396996081
H         0.20227647902475   -1.46658304863846   10.08247394666662
H        -0.17874323031947   -1.65791747061817    8.36892862694993
C         0.76852730439046    0.22434145556756    8.84030140059696
H         1.36030064382196    0.63454440818352    9.67084139313133
C         3.96011206260978   -1.60234649617375    7.33819059074460
H         4.47368806082364   -0.98885180673774    8.08165094970512
H         4.22182304756797   -2.64393965472209    7.53802443115636
C         4.41082236968383   -1.22087135492141    5.93556099990360
H         5.49364109712173   -1.25688001174754    5.84860128754122
H         3.98814222110128   -1.90063400744975    5.19956542624225
H         4.06914484273656   -0.21076181764391    5.70008573768048
C        -0.50524279184202    1.05336233948781    8.70351395691583
H        -1.18998090873749    0.56400280780098    8.00706672523103
H        -0.23968960695890    2.02899744952441    8.27484726593430
C        -1.20350894673244    1.26710769516726   10.04051047683815
H        -2.08537205975780    1.88863865656552    9.90890257939968
H        -1.51894562619555    0.31875979242843   10.46671105790048
H        -0.54008213528137    1.75979337859753   10.74768561298063

