87
CSD_code = QIXDUW | q = 0 | S = 0 | Stoichiometry = C30H46CrO9Si | MND = 9
Cr        3.04261624610070   10.62647774569179   12.61682700882754
C         1.48361994275036    9.88013291834495   12.05465742211029
O         0.49796682203856    9.35753406270471   11.74602753067089
C         3.26092415979465    8.98174770978056   13.34232535710273
O         3.37433806598280    7.92501086923819   13.81258752043610
C         2.07118446803237   10.88312866908610   14.13345311338296
O         1.42691298281185   10.95746751771495   15.09049056648020
O         6.17341227216555    9.66090406458927   11.87818418651666
C         7.06629758910111    9.63565368203233   12.96699895772983
H         7.89850995378504   10.33597669874879   12.78795367694617
C         6.37512833846468   10.01429823728075   14.27689279783374
H         5.47914159603641    9.39020385233734   14.41012598973430
C         5.91649153564970   11.46965662713015   14.17462660427932
H         6.81342943420855   12.10807078431774   14.12097380036634
C         5.07716355581920   11.58614750873834   12.91726989100096
C         4.12534672431655   12.62048226129339   12.77632668761910
O         4.02102284157338   13.60984846682297   13.69103136070898
H         4.37667211883753   13.27772774074217   14.53767462799541
C         3.28564832035258   12.69713936325585   11.63960539060692
C         2.37851117342258   13.89716874509674   11.54692337574027
H         1.95820432856499   14.09063032542216   12.53616536646691
H         1.55562192316540   13.71282058552745   10.85806823000006
C         3.15522711700055   15.13849817597912   11.09903456365904
H         2.48542902081517   15.99139384881541   11.02425900936054
H         3.62016441491550   14.97806302890802   10.12848635915521
H         3.93269933585288   15.37211494365822   11.82155924981066
C         3.36735843201660   11.68930800957753   10.66012878661679
C         2.52968203934369   11.68789421607990    9.40883099140121
H         1.57030692230325   12.17342846906670    9.58584153181262
H         2.33341991674848   10.65232579136303    9.12501401496727
C         3.26062651469330   12.37668274442837    8.25474378836426
H         2.65274102960788   12.34328207391207    7.35421296306540
H         4.20153578673130   11.86860334233203    8.05869244386588
H         3.46754980443310   13.41742223664145    8.49229172920239
C         4.35724097205175   10.67946961100578   10.76096407680387
O         4.48260245188254    9.79715755346233    9.71686404876507
C         4.36550193858919    8.41686208422506   10.02237398765018
H         4.25983936232967    7.91583116623351    9.06165154577714
H         3.47854704378747    8.23477284521815   10.64148121613991
H         5.25227375984586    8.04195898798549   10.53735324294018
C         5.20746747296172   10.63299032520707   11.88582206982834
C         7.62720439522215    8.21964418427205   13.12781700030595
H         6.79292893081954    7.50826163359547   13.19144716943311
H         8.26111340187308    7.94970239333332   12.28141273392086
O         8.45319278830806    8.16754755872924   14.26507286298652
C         7.83093482119996    8.55824932522254   15.47638703183483
C         6.80733187765097    7.51564017715923   15.94579616898836
H         6.48072106468252    7.75512438779081   16.95243326506833
H         7.28621221705092    6.54023885934365   15.94532887874321
H         5.93186459985397    7.47349652410799   15.30462002224996
C         8.95928264483142    8.69742270165649   16.49803257347973
H         8.55866467249976    9.07099724342421   17.43431474686974
H         9.69674674295497    9.39792396443041   16.11901372111862
H         9.42979604432069    7.73218379990339   16.65056559270796
O         7.26558686203638    9.85999981838586   15.35235927475000
O         5.14634241440314   11.86150154571350   15.27351094856323
Si        5.59864067787470   12.10413775021471   16.86033655509359
C         7.46102810490142   12.60039147514929   16.89944324787785
H         7.98631919990718   11.87279765287226   16.27413987724394
C         7.70335252902543   13.98630910531102   16.29504993867163
H         7.26278347967579   14.07107212492990   15.30348845975313
H         8.77195177411314   14.18028545765511   16.20778152538080
H         7.27183283917760   14.76386067506198   16.91988544452777
C         8.09867768820763   12.52535965450259   18.28548532370707
H         8.02556349026170   11.51881799640682   18.68701702155028
H         7.61314250189825   13.20817760071586   18.97781620601899
H         9.15332530724698   12.79250670340045   18.23130217987678
C         5.24041589705201   10.49530905658112   17.84618147886108
H         6.11145668732107    9.84398669609853   17.72007375421515
C         4.02181644244533    9.74648839895778   17.30128084912489
H         4.10947039041888    9.56739696291351   16.23400618939677
H         3.11280102201568   10.31823453075057   17.46021136798283
H         3.91036437762502    8.78633305374576   17.80314485100271
C         5.05830933747205   10.72242282544344   19.34655886071418
H         5.89519124629478   11.26942859654933   19.77136193329385
H         4.97442350398394    9.76807854771406   19.86503955204198
H         4.14778129958831   11.28350346898923   19.53764790379639
C         4.46369510226543   13.60880710518589   17.26959621298482
H         4.64351840181755   14.37642655626263   16.50573969391699
C         4.77042904293996   14.25403640252686   18.62044338041690
H         5.79681892340965   14.60570472747292   18.66790807614636
H         4.61621981483617   13.54889300165368   19.43122887723926
H         4.11379830481954   15.10710147610675   18.78591119489690
C         2.97517716245511   13.25918022133709   17.20930535773845
H         2.72166960669033   12.75125056970733   16.28448919415010
H         2.37170921033045   14.16280903992180   17.28163776091242
H         2.70381542733692   12.61067055881084   18.03768065871144

