73
CSD_code = QIXDOQ | q = 0 | S = 0 | Stoichiometry = C25H36CrO10Si | MND = 6
Cr        2.61484073240324    9.08764204579871    4.96082637229120
C         2.43817164222022    8.65208218487775    3.15717134214959
O         2.33471348760880    8.40421838346878    2.03936472140797
C         3.77633375044530   10.42187242643720    4.34189107826012
O         4.46562239070588   11.14715320911431    3.77490361087365
C         4.03428561936607    7.86273650920379    5.00425895082042
O         4.84019312663424    7.05833604597690    4.88748702788357
C         1.48128858621875    7.64618948480379    5.34542363018880
O         0.82317075416857    6.71548349360971    5.45463565648710
C         1.13000181512555   10.19237241498059    4.66435932077206
O         0.21764715507410   10.77993951045586    4.28361585467860
O         3.13059344039463    7.20056792063786    7.31350697979843
C         3.04509021977606    8.43578635453676    7.90372188249701
C         3.13875804980896    8.61552170415463    9.23503120948653
H         3.04670980062595    9.60961427130603    9.63907412464191
C         3.23849858519731    7.50166420276699   10.23443619790746
H         4.26876973953687    7.39933136523944   10.60282682573078
C         2.84178515946580    6.20311940463552    9.52414602294257
H         1.75092187226941    6.22382440949624    9.37749894706943
C         3.53974320976013    6.14918895628277    8.16199737893925
H         4.62740298445373    6.20373038626186    8.32663714339484
C         3.19449062260569    4.80297687606063    7.51940242134231
H         2.12830174962452    4.79412294935006    7.25554222515814
H         3.78156958676603    4.63909609255975    6.61421875983012
O         3.53235231300366    3.75460084390129    8.39569409921575
C         2.97185235279630    3.83096946809309    9.69450561662141
C         3.73360642424151    2.80821849903304   10.53748276624221
H         3.34253638928222    2.80568690524448   11.54924533920657
H         4.78379081056670    3.08116083320047   10.55832013460708
H         3.62886380492537    1.82521222107657   10.09134087823996
C         1.47098953859998    3.50661293218238    9.69201912419619
H         1.08971100775579    3.59152219740109   10.70567379591455
H         1.33082104536133    2.49124908565613    9.33339666332974
H         0.91079915574045    4.18019752035003    9.04980988533138
O         3.23257397687017    5.09283752046363   10.29406298039458
C         2.83142648094891    9.51228837843317    6.93156817314821
O         2.81443385051254   10.67209609113067    7.58086269579720
C         2.59688330182918   11.87682726729682    6.88204130956395
H         2.62146093995168   12.66950940642023    7.62936823772129
H         1.62436640306087   11.86867954876724    6.38163847035414
H         3.38000424517047   12.04484515937031    6.13724419878830
O         2.37355268954921    7.73914373773193   11.30096907827454
Si        2.64327410042526    8.07821656891944   12.88424045563402
C         2.84970506517555    9.98634448750857   13.10416775387844
H         2.85932652079716   10.22464116149357   14.17195933296532
C         1.67564175458681   10.74368778885876   12.48317157771598
H         0.74655431042385   10.49252788641567   12.98713357452818
H         1.56928475030387   10.48921041886165   11.43127708508793
H         1.82620421346144   11.81989928291393   12.56336833643352
C         4.16268764932996   10.50395260551778   12.51384662267971
H         5.01952735555088   10.04476628825799   12.99953168576749
H         4.23992148143559   11.58337332801887   12.64182421653298
H         4.21971894395750   10.28590256213502   11.44986952524210
C         0.96280881666839    7.51471808939878   13.61572353209919
H         0.19851166202947    8.15000239386467   13.15624912092930
C         0.87850758774703    7.71801280537736   15.12540558039533
H         1.11484329407374    8.74427279823620   15.39379573197641
H         1.57542881659989    7.06120368032518   15.63967656144110
H        -0.12373777495699    7.49171032917855   15.48723294009487
C         0.60918985454092    6.07244181391140   13.25716116290395
H         0.71470005052022    5.91457548827203   12.18809293226027
H        -0.41808946817982    5.84911306666185   13.54376358923175
H         1.26292537326677    5.37393916291535   13.77171716431127
C         4.24486142382160    7.22708237491342   13.53014796177929
H         5.05377731757861    7.54038813118642   12.85728914832694
C         4.17617604182742    5.70134143561435   13.45923826462589
H         3.85492713872201    5.37284197020595   12.47513810330049
H         3.47846876514313    5.31910306112215   14.20013624450731
H         5.15398586351547    5.26732605256929   13.66740436023264
C         4.64570588529661    7.65757398864290   14.94190766613269
H         4.75121543937379    8.73654742807964   15.01206228663973
H         5.59527172895279    7.20196550770093   15.22032154496333
H         3.89724722759250    7.34388982514404   15.66442480589801

