53
CSD_code = QIXDOS | q = 0 | S = 0 | Stoichiometry = C23H24Cl2FeN2O | MND = 5
Fe        2.62932951605259    7.70593870600259    5.33779114262813
Cl        3.11626259166824    8.66748749621096    3.60686465942297
Cl        1.96769703598003    6.47075496229688    6.76521360263302
O         5.10545404582912    7.59647344046407    5.58828316284091
H         5.29673844375741    7.66201012622842    4.64308668067184
N         1.28264397396828    9.70428317808013    5.88258350654153
N         3.66714763248915    9.34829899447852    7.17504434206755
C         1.99648540160060   10.79966057930741    6.13403212438266
C         1.44559166040313   12.07261278651588    6.03942324207907
H         2.05215780638799   12.94058030127932    6.24914408785424
C         0.11850294241088   12.20771832809213    5.67029548696939
H        -0.33084487326460   13.18628365026014    5.58654903720541
C        -0.62139176130658   11.06299480270707    5.41705912039454
H        -1.65994042365680   11.12003692435213    5.13273244960509
C         0.00800743745292    9.83640471693821    5.53995998386646
H        -0.52444741048960    8.91182480763164    5.36271921463942
C         3.44604011261495   10.61205516540400    6.49741659122920
H         4.01712837455722   10.61620864791582    5.56360116242634
H         3.77431084100291   11.47056212233367    7.11256674780519
C         5.05576763490337    9.01463522284782    7.49233301375496
H         5.55985491034912    9.85096042062217    8.00323709329012
C         4.88550531071731    7.84957842467372    8.47361945970915
H         5.76861081821300    7.70612496974288    9.09291380203773
H         4.70132959770000    6.94349091044822    7.89907542108564
C         3.63761234938016    8.21059662698809    9.28244968526838
H         2.98281529404119    7.34886269947581    9.38304417825085
H         3.89452245757773    8.56937717431066   10.27884285496113
C         2.96796152919241    9.31573234964418    8.46188935909187
H         1.90959788163214    9.12096887678522    8.29394702247517
H         3.06878786304840   10.28969335257340    8.96996475285217
C         5.89491137404573    8.56631387284057    6.26979144809358
C         7.18345598042337    7.91695179572581    6.78838440242593
C         7.38711574672611    6.55133886125370    6.65169542026409
H         6.62329180671215    5.94689733228190    6.18750351347361
C         8.55100519429097    5.96501253325270    7.11676588816913
H         8.69475820288784    4.90058855360516    7.00462839247841
C         9.52496342871972    6.73703778383796    7.72429613378269
H        10.43351606938472    6.28052907592082    8.08783399479946
C         9.32828330528286    8.10059142427280    7.86284797958394
H        10.08421780760949    8.71119633302508    8.33443446759176
C         8.16681272383562    8.68811704191717    7.39560852234746
H         8.03204709390950    9.75418259093538    7.49908293191734
C         6.35604937298653    9.67423522117102    5.32786590749032
C         6.76086946256439    9.33221245538610    4.03966839299475
H         6.73879594210725    8.30330178614047    3.70642400288242
C         7.23096843555642   10.28887829269757    3.15901469104263
H         7.52564825034338    9.99549176126071    2.16287429402084
C         7.33158207004242   11.61084093503905    3.55321387015855
H         7.69563598526221   12.35979653508547    2.86654478857638
C         6.97496323331058   11.95850740396371    4.84311922848868
H         7.06662754282302   12.98289550347317    5.17337336682516
C         6.49920341767357   11.00069035277851    5.72154108138003
H         6.23473855929490   11.30958178951962    6.72070429317447

