81
CSD_code = QIXDIK | q = 1 | S = 0 | Stoichiometry = C30H48P2Rh(1+) | MND = 6
Rh       -9.96938814581302   -8.07321561287447   -0.09333238296536
P       -11.79148193643863   -9.25365192407689    0.61406440239848
P       -10.94371190258094   -6.28962199875030    0.94755546964503
C        -9.61699510743451   -9.08205333432963   -2.00043999569048
H       -10.59413986134153   -9.39670087420360   -2.37098796036251
C        -9.01966880548517   -9.85225475385968   -1.02457928488133
H        -9.56334373287838  -10.73579312151827   -0.69308344671313
C        -7.52934127923426   -9.89608597988537   -0.78148324031137
H        -7.01149042544649   -9.73629232420618   -1.72754329792575
H        -7.25519643202167  -10.89236693549814   -0.43084967041724
C        -7.06988483367279   -8.86867985692099    0.26991878040519
H        -6.01710982034618   -8.61644977122644    0.10655763420432
H        -7.13855032946477   -9.32124242293229    1.26198694350180
C        -7.87028238047136   -7.59155874916786    0.28014820554844
H        -7.83692034746865   -7.07525975718541    1.24113328658091
C        -8.25530746343186   -6.86692157159746   -0.82839022823183
H        -8.49355502471808   -5.81564513942873   -0.67268223524086
C        -7.86944439744128   -7.22803134321860   -2.24348706281438
H        -6.89377400284429   -7.71436991737199   -2.23152684683384
H        -7.76421202865754   -6.31308536028744   -2.82868518080234
C        -8.91547245903837   -8.12554807078919   -2.93021173359764
H        -9.67174703366818   -7.49269104354613   -3.40076026841845
H        -8.44100943941900   -8.70374774569367   -3.72969233863234
C       -12.89297773508960   -8.15499526872438    1.57380535360424
C       -12.53334762889145   -6.80954203452294    1.68572497003682
C       -13.37439498317114   -5.92912692114891    2.35921690580899
H       -13.11929029798836   -4.88277914865582    2.43463198786189
C       -14.54771148041574   -6.38152600157515    2.93445768653195
H       -15.19337747134051   -5.69077050306367    3.45454250088006
C       -14.88953813806027   -7.72173309799984    2.84889342735639
H       -15.79911700144715   -8.07834221422026    3.30717628414250
C       -14.06833570592323   -8.60245963196180    2.16909721682909
H       -14.34715523645372   -9.64374711554749    2.10811785299754
C       -12.90213644317789  -10.22134221829242   -0.53720250355242
H       -12.25775518779042  -10.47318284376663   -1.39173913918123
C       -13.24952782724603  -11.52793117251408    0.18255913745902
H       -13.51574689157144  -12.30315818435722   -0.53590166075227
H       -14.10315819403492  -11.38464199364640    0.84617947099924
C       -12.02076142861787  -11.93231142030062    0.98695421085449
H       -11.22887858130789  -12.25572112909031    0.30652482556236
H       -12.23926032012802  -12.76199165742388    1.65974326002617
C       -11.55826803485129  -10.70450857434091    1.77678847759369
H       -12.25283878535344  -10.52750241845176    2.60759388366482
C       -14.09613773403593   -9.42813407516590   -1.06545346538136
H       -13.74366737350840   -8.46008024467970   -1.43072602885257
H       -14.80348180594129   -9.23593058212171   -0.25703826666759
C       -14.81227710535692  -10.15790931982962   -2.19666582503885
H       -15.62208733691547   -9.54415081979674   -2.58194437536186
H       -14.12720874348205  -10.37096320253730   -3.01425382686962
H       -15.23547401658672  -11.09579482859498   -1.84782542032760
C       -10.15444486598879  -10.85438001225990    2.35509557715396
H        -9.44455050034068  -11.09367297068097    1.56157839176954
H       -10.16014323948415  -11.69387796214856    3.05493181835208
C        -9.70127940576940   -9.59309010936494    3.07518464818995
H        -8.72502990519885   -9.73753367490437    3.53118657980156
H        -9.63514713699288   -8.76389583130426    2.35688456613490
H       -10.40914721000235   -9.32333391774931    3.85678621168407
C       -11.44073702928545   -4.78923592770832   -0.05949817332674
H       -12.48976548356149   -4.59811003116377    0.19936739362544
C       -10.57407897896081   -3.64231684710849    0.46881334050393
H       -11.00699256249888   -2.67855416207476    0.19954083944769
H        -9.57749689592744   -3.69521608934880    0.02311188007855
C       -10.46484865187976   -3.80213052192188    1.97973650752945
H       -11.41782226722027   -3.56372391558066    2.45353319361136
H        -9.71421498544761   -3.12564186567462    2.38831588318526
C       -10.08007070263170   -5.26021243398382    2.24707291967798
H        -9.01064154804553   -5.36928892521463    2.01595810474341
C       -11.34810086309489   -4.96318794092934   -1.57244773383942
H       -10.30754030446630   -5.09989152824705   -1.87164430054104
H       -11.70816198278131   -4.04593663962820   -2.04527906494320
C       -12.17328992125534   -6.14517361067336   -2.05871464993887
H       -12.13912190669305   -6.22103452464871   -3.14265687349126
H       -11.77380283770447   -7.07398514339098   -1.62806695267016
H       -13.21276696769390   -6.03700453364613   -1.75463620600154
C       -10.30461669906440   -5.74553148470352    3.67803753554621
H       -10.12777943991276   -6.82356861193987    3.71727272900336
H       -11.34099611424712   -5.57208441514136    3.97248791462900
C        -9.37722686623587   -5.05114087833337    4.66944881354340
H        -9.52721223714791   -5.45626163982234    5.66658456427058
H        -8.33551400066240   -5.20005769125411    4.39404425315524
H        -9.57531981217778   -3.98348192872038    4.70508380025314

