66
CSD_code = QIXFAH | q = 0 | S = 0 | Stoichiometry = C25H38ClCrP | MND = 7
Cr        6.75144785920940    7.13543854332584   11.38032562177080
Cl        8.59453271644420    6.08245810708791   11.24302523048067
P         5.68261776016228    7.13482143687471    9.39486108456418
C         4.97893503080613    8.38858947320341   11.91197953438262
C         4.97446570867541    7.21532276171795   12.70701769653102
C         6.18471560559353    7.20423341680901   13.45758469515507
C         6.91776928701136    8.39098726109775   13.12687432704448
C         6.15570435177531    9.13045216754571   12.17849060118103
C         6.43058678386542   10.51247426821753   11.66919275981056
H         6.17978027506720   10.57396411855265   10.60757206122538
H         7.49168615802917   10.74473179794396   11.78034124942989
C         5.59740608054333   11.56088843853983   12.41434673951458
H         5.88552892226723   12.56354529925596   12.10489350538367
H         5.73602681394028   11.47494329081624   13.48936824260676
H         4.54151195075021   11.42426003474733   12.19508565342482
C         8.21046710547401    8.82932765025207   13.75256262523279
H         8.88837318539067    9.19770144305431   12.97567324445971
H         8.69206660254040    7.96588047558807   14.21819309719864
C         8.02703385973376    9.92819589628503   14.80382661957351
H         7.73448605321307   10.86422709320429   14.33633328756568
H         8.95870095784056   10.09356079841684   15.34147891618151
H         7.25779176565606    9.65145080159992   15.52165139621752
C         6.55807410333414    6.18869517240867   14.49888379520596
H         7.61368098462880    5.91829806261029   14.39420302658012
H         5.97170550021959    5.28081254454838   14.33630106602841
C         6.31731660352196    6.68422605814129   15.92762377938331
H         5.29418268236610    7.03400329049566   16.04735009511039
H         6.98764801241458    7.50455042676928   16.16839472447279
H         6.49275730387431    5.88011484390654   16.63952555626261
C         3.79676040805053    6.29897347929973   12.84231542018646
H         4.12436263957887    5.27012299435243   13.01313129853314
H         3.21907138358471    6.32516042315793   11.91395908472983
C         2.87819362016170    6.73088799180651   13.98898831681431
H         2.54493871242562    7.75498196660953   13.83641157154720
H         3.39961625084780    6.67644291680338   14.94078847346682
H         2.00341816362451    6.08578667361519   14.03823017247852
C         3.98467536535036    8.70336098032278   10.87003241309402
C         2.85705595516067    9.47865406600731   11.10501539528789
H         2.67259666056802    9.86360913628427   12.09828987776902
C         1.97007840872397    9.75633959880531   10.07876700372347
H         1.09669994689514   10.36198242137206   10.27162241816190
C         2.20030125083857    9.26151418572856    8.80472729386950
H         1.50917649693512    9.48612771988823    8.00527317007881
C         3.31017645477134    8.47393471028076    8.55802514612703
H         3.48400689967904    8.08227122392845    7.56513042072679
C         4.20373981197272    8.18373560477566    9.58426043749269
C         5.05190520366226    5.50525683475593    8.68402673209871
H         5.10229826993858    5.54972565894153    7.58896226650208
C         3.62693160640688    5.17079410137838    9.10840273234296
H         3.56610896642612    5.10110163209216   10.19163390540318
H         3.33300133027025    4.20878926644718    8.69043543388033
H         2.91752814927266    5.92189337562274    8.76873011435782
C         6.00984849787217    4.43475061763418    9.20565123615033
H         7.03821296830202    4.64505838826273    8.91657500074628
H         5.73649637017087    3.45089700672621    8.82791332724468
H         5.97266050619510    4.41501428600850   10.29669263781701
C         6.48012708867676    7.85612860943571    7.85776027382505
H         5.77090301105811    7.81788127127674    7.02136136580369
C         6.85472143159822    9.30379101582014    8.14840324853705
H         5.96748806333325    9.89578225809031    8.36816448073162
H         7.36084021745042    9.74982431668696    7.29376639261842
H         7.52701509267978    9.33833250638492    9.00566580071213
C         7.72861731150773    7.04758061150921    7.51883227866540
H         8.35083497378707    6.93635685860289    8.40968497775813
H         8.31315824582066    7.55581224731493    6.75330876666283
H         7.47413424205211    6.05838807095377    7.14520088207725

