79
CSD_code = QIXFIM | q = 1 | S = 0 | Stoichiometry = C22H52P4Rh(1+) | MND = 4
Rh       -5.19051186090023   -0.37089552993444  -18.21013883173142
P        -6.97846179360310   -0.18155869749176  -16.77797534265565
P        -4.98962758834879   -2.13683789396765  -16.75189775087394
P        -5.38463878799307    1.40128385537158  -19.66087762890034
P        -3.40199030402414   -0.56075489829382  -19.64149796905462
C        -3.58828425322582   -2.06899601452782  -15.51111338555826
C        -3.81858892773864   -2.94296896936860  -14.28417523707307
C        -3.45833240195045   -0.59446387404933  -15.12620929924023
C        -2.32550399939139   -2.50994128645847  -16.24878069868667
C        -5.27446601045413   -3.92721985654249  -17.04387725297378
C        -6.51990068402765   -1.69128041941666  -15.79192614279345
C        -8.67599881811005   -0.54530634486522  -17.48101507695883
C        -9.11909013231813    0.70872295814282  -18.23219481326088
C        -8.46596715437387   -1.68369425283777  -18.48071037867539
C        -9.70561512848736   -0.92138407073672  -16.42232791625808
C        -7.27583754351646    1.03214513260533  -15.43246403717436
C        -5.05183284281143    3.11096654517447  -18.97222675408502
C        -6.32127391345786    3.54576480380190  -18.24238789074181
C        -3.92403789414211    2.92629434747434  -17.95566907652433
C        -4.67514757084764    4.13395979384830  -20.03707216208527
C        -6.58650485363271    1.66765250527148  -21.02343310597675
C        -3.85762969373710    0.95198947350466  -20.62428004872543
C        -3.43801780259138   -1.97717158576879  -20.86655862107959
C        -2.98594311443766   -3.22477825151696  -20.11005517435902
C        -2.55590826399557   -1.74886607773111  -22.08806631619316
C        -4.90679893335894   -2.13299248185162  -21.26376047522436
C        -1.61872552093466   -0.24857164778079  -19.33422648967105
H        -4.75796386335336   -2.70810573282243  -13.78782898320440
H        -3.01471650029096   -2.78031414466702  -13.56850904454533
H        -3.81981170875957   -3.99782622509497  -14.54801147926124
H        -3.44507484646101    0.02354025390082  -16.03276483996843
H        -2.53546198507302   -0.41933973370601  -14.57730768021785
H        -4.28890877946188   -0.27546407619387  -14.49926182534170
H        -2.35465651561207   -3.57123422372014  -16.48625301834494
H        -1.44544075255827   -2.32813428355028  -15.63520420292802
H        -2.22557424218271   -1.94526410566405  -17.17514028734162
H        -6.04347105639370   -4.03871412065794  -17.80781360757727
H        -5.61130880288881   -4.39827576112441  -16.12127012600175
H        -4.36902879275567   -4.41885575181830  -17.39071390910914
H        -7.26645607114709   -2.48544893572445  -15.83404567319703
H        -6.32492510107874   -1.44478616319413  -14.74739460035933
H        -8.33202573886231    1.02387874944583  -18.91643222861896
H        -9.33645765092199    1.52563221840765  -17.54735860630634
H       -10.01946542284939    0.50652241151736  -18.80882111970111
H        -9.35020327659057   -1.82129310571131  -19.09945248810131
H        -8.26174502182877   -2.62358438690380  -17.97127024497703
H        -7.61788646815332   -1.44776992758032  -19.13571913577040
H       -10.63536765364048   -1.21043701130734  -16.90916283800849
H        -9.92111166082782   -0.08030235171691  -15.76760443631257
H        -9.37487465629833   -1.76005519636668  -15.81295811358113
H        -6.31523230292301    1.33514559883778  -15.01672122455337
H        -7.87782616325261    0.57030939547652  -14.65086374748197
H        -7.78552123388539    1.91694711859982  -15.80554927133998
H        -6.13777663593719    4.45384186238959  -17.67153891473846
H        -6.63647774065707    2.76122700233683  -17.55515740262338
H        -7.13120702891903    3.74698280792661  -18.94036967862209
H        -2.97529512391738    2.72742480843713  -18.45071125715103
H        -4.15830814398884    2.08306850068493  -17.29370857689075
H        -3.80489109717539    3.81932234542339  -17.34576839060075
H        -3.82322308312350    3.80859297556929  -20.63062959566279
H        -4.40638810358824    5.07310778320565  -19.55686288274362
H        -5.50961181703486    4.33011026794150  -20.70605827631594
H        -6.12358304759556    2.26721442681815  -21.80627207060756
H        -7.48228780574587    2.16947451354735  -20.66621430466875
H        -6.87196322716122    0.69865396049304  -21.43206899534349
H        -3.07431689931603    1.70990808858072  -20.58191500156439
H        -4.08949400019739    0.74178992530613  -21.66921442003185
H        -3.15110351653673   -4.11469662884317  -20.71409825120726
H        -3.55638329043604   -3.32096245707797  -19.18682615884113
H        -1.92702898309106   -3.17825357069538  -19.86486298138490
H        -2.69891916925660   -2.56453344346513  -22.79453592249987
H        -1.50377763953525   -1.72736190109630  -21.81433325643630
H        -2.80085148124490   -0.82001577263032  -22.59910912225115
H        -5.23185845863918   -1.31372927168662  -21.90243975979215
H        -5.53315681883381   -2.14575220963769  -20.36293510989987
H        -5.06327684207899   -3.06403745431507  -21.80446227074144
H        -1.14220881802479    0.08396278053468  -20.25560715574673
H        -1.11896851921051   -1.14334434722858  -18.97171327080282
H        -1.52559064834423    0.53053723674196  -18.57813636414311

