83
CSD_code = QIXGOW | q = -1 | S = 0 | Stoichiometry = C31H46CrN4P(1-) | MND = 8
Cr        1.73310677569722    7.74480151985955    4.78067115878639
P         2.86676845510493    6.12818342844027    3.66604717374865
N         3.95182526884198    9.01077794773462    6.08051066563168
N         3.10949820519838    8.52159580295427    5.47970821478645
N         1.72736325558218    8.87532067550317    3.46918063325489
N         1.59190277730874    9.61754500737376    2.61006581396143
C         0.48587249830922    6.04798965099587    5.36832734314953
C         0.98359749085511    6.64730338934648    6.55447694927322
C         0.43260673286190    7.95891702485408    6.63116948053969
C        -0.40096739314411    8.15462303234865    5.50164135459230
C        -0.38080489924600    6.96287417589707    4.72176320284306
C        -1.28369010239468    6.60687287726710    3.57571826614887
H        -0.83685685704146    5.78480793826352    3.00930032902476
H        -1.40346630677697    7.45532097781323    2.89459750409249
C        -2.66714448756943    6.15532044909948    4.05798691711419
H        -3.28900589118153    5.85231186127308    3.21536297808745
H        -3.17345134430430    6.96039943137616    4.58545860270007
H        -2.57041156635906    5.30922856094644    4.73623965774561
C        -1.22714581402175    9.37599636438841    5.20341656458001
H        -1.54979003427366    9.34241636598919    4.15961437555572
H        -0.61678204697473   10.27732366817390    5.32037949079424
C        -2.46259516610642    9.50103048667900    6.10166540558194
H        -3.08530658429439   10.33679406898724    5.78192886178510
H        -2.17021156067074    9.67004040658506    7.13503843608851
H        -3.06177790499023    8.59253779026701    6.06450691223595
C         0.66179020658576    8.94822654746947    7.74110680131473
H         0.37621564403250    9.94462053885372    7.39275742980601
H         1.72793202320349    8.98803293784763    7.98694479995363
C        -0.12443047854909    8.62408887479354    9.01654449207824
H        -1.17747361335850    8.46087883299934    8.79100050229014
H        -0.04751765078772    9.44405418686098    9.73100655366981
H         0.26332726399827    7.72584261757205    9.49025436875349
C         1.74690388058340    5.92351639737691    7.62653095030508
H         2.25002322430927    6.64588986513506    8.27520293169654
H         2.51690442272939    5.29091280070990    7.17599077906762
C         0.83427443565143    5.02476680721674    8.47065741557858
H         0.44590342509791    4.21171894156618    7.86064299126781
H        -0.01075215770379    5.58697358736668    8.86400403180236
H         1.38428993053449    4.59271644624368    9.30719701140596
C         0.85541395673036    4.70753084364534    4.88283897479315
C         0.10868325614421    3.58444141784299    5.20327706903960
H        -0.79746141184405    3.69496754723184    5.78636918785662
C         0.51090801472375    2.32122562335207    4.78943688342127
H        -0.08147558092030    1.45223471298256    5.04491232939039
C         1.68318668033933    2.17862498307675    4.06470220923770
H         2.01338032618014    1.19214826642653    3.76274193085440
C         2.42966413869430    3.29016738646758    3.72162903634089
H         3.34687926900400    3.16116824541804    3.16554327201352
C         2.01759406613772    4.57083534468180    4.09857544956033
C         4.67229200258693    5.67748072032568    3.98215310929719
H         4.97159759075080    4.76755712856316    3.44727269232470
C         4.81697168479666    5.45065547253097    5.48312448947907
H         4.40617322624403    6.32424485803820    5.99598282899125
H         4.23551878873513    4.57095522074324    5.77576931979821
C         6.27487950173782    5.26691446351589    5.89065230752803
H         6.34246499723563    5.12378016254385    6.97240735952991
H         6.68342216220912    4.37240423298438    5.40877676485001
C         7.08620650673880    6.48731155068894    5.47176288691119
H         8.13098792794384    6.37240719010256    5.77642750807964
H         6.67727302854418    7.37145443139427    5.96315146696050
C         6.99226813525933    6.67437528084009    3.96213312587408
H         7.57614552416395    7.54602930034807    3.65622360632262
H         7.41291326641971    5.79627326317244    3.46014391204422
C         5.53599718229193    6.85712976846536    3.54212800933986
H         5.48298075493895    6.97886824050728    2.45806601775055
H         5.12960886621044    7.76297889400957    4.00020793402005
C         2.89108207898414    6.11863160222280    1.76336580738726
H         3.37005513324253    7.08298639968149    1.53952637327336
C         3.60494589751970    5.01650462971936    0.98396071341567
H         3.10897447585165    4.06009313855183    1.16107421101747
H         4.64817514905959    4.92879959911377    1.29260379640776
C         3.55316499495453    5.32425121049635   -0.51309739249676
H         4.06421091451894    6.27117975934126   -0.70366244354560
H         4.07568719389650    4.54166973260194   -1.07270092317768
C         2.10817556264950    5.42799246527072   -0.98997384317785
H         1.61161067102109    4.46453300658771   -0.84413156683683
H         2.08200729791450    5.65889943280033   -2.05906709641915
C         1.36706541648259    6.50226855478641   -0.19954586154852
H         0.32303000110886    6.54738401062559   -0.52083146308542
H         1.81933671626964    7.47704386753830   -0.39266477210018
C         1.44278790997413    6.21270955571877    1.29559253861310
H         0.95316982720645    7.01438854419332    1.85208414556802
H         0.93042284061661    5.27022765642160    1.51404074400374

