71
CSD_code = QIXGAF | q = 0 | S = 0 | Stoichiometry = C34H30MnNO2P2S | MND = 6
Mn        6.99472515936623    2.44555659058267   10.05848206898715
P         6.32450749033067    0.28479256431369   10.01540362010537
P         6.28029637037920    2.65896302593964    7.92913755676545
S         9.04279162498384    1.29649943514438    9.43608118776007
O         4.76965998040154    3.58775159595714   11.56771148769837
O         8.08544900123020    5.15850195315327   10.04466783717913
N         8.03362408259520    2.04126331065856   11.65980334569868
C         5.61312984304136    3.10864519761519   10.93089613726466
C         7.67966102519138    4.07831470033965   10.02617595445399
C         9.10071138695415    1.41274085599106   11.14153372076440
C        10.13227613010266    0.91003698235714   11.93900488537022
H        10.96389880775729    0.40940721633166   11.46834512335055
C        10.04481154545618    1.07703048731495   13.30125458858520
H        10.82136924205364    0.70056191164556   13.95009536027939
C         8.94211123684202    1.74490451152666   13.83318674629724
H         8.84743504774916    1.89956202776168   14.89566240109183
C         7.96383736392174    2.20920324821983   12.97944725606263
H         7.09168944720498    2.73420385388506   13.35030657135120
C         7.08093332002687   -0.77861233127490   11.28034457584014
C         6.62576523187131   -0.59768772962439   12.58570182347466
H         5.81314047204499    0.09714169712549   12.76632659618058
C         7.20359398719159   -1.29470759411382   13.62775223401562
H         6.84586437022282   -1.15117511536245   14.63689105295554
C         8.24903704783140   -2.17008783229615   13.37723576807505
H         8.70651297489728   -2.71180608112015   14.19197645179212
C         8.71128993129151   -2.34525791697419   12.08437561225060
H         9.53040043403291   -3.02262500767600   11.89006430400579
C         8.13562247274133   -1.64941345964513   11.03531125030078
H         8.51967643669505   -1.77710436332869   10.03335597907753
C         4.56318826999700   -0.14292984110388   10.26759425288391
C         4.17637562731381   -1.42897250746343   10.63491353816945
H         4.92649453471026   -2.18094008868181   10.84345350962834
C         2.83538497306359   -1.74332352271811   10.74647848845057
H         2.54099403004417   -2.74109868767810   11.03878749588608
C         1.86924585122191   -0.78449080153617   10.48272076391358
H         0.82260279687578   -1.03643873484402   10.57049888355221
C         2.24769815827225    0.49400275517556   10.11062319229088
H         1.50138669787164    1.24677495610785    9.90324957690792
C         3.59000599117041    0.81306118891339   10.00655969408018
H         3.89484156572405    1.81355982809508    9.72433294259009
C         4.57052065885658    3.25007306513346    7.70243580039466
C         4.27089481345493    4.41970363858695    8.40224137298925
H         5.05329051892981    4.87977380820984    8.99856918788383
C         3.00761274717905    4.97188324566414    8.33507933287712
H         2.78407259258927    5.87749422268757    8.87855632249259
C         2.02525325757577    4.35521635998294    7.57388267612884
H         1.03256238127427    4.77800818075477    7.52681050461785
C         2.31785365456055    3.19796790584684    6.87385521373475
H         1.55425903381533    2.71919229648926    6.27769771983252
C         3.58698480305368    2.64464758388429    6.93067841646399
H         3.79549291236033    1.74471619420312    6.37189788214251
C         7.17649720017111    3.85461430916051    6.87596007124923
C         6.53270361990385    4.62996612891301    5.91684014979127
H         5.46078765512118    4.56387902336173    5.79595468543974
C         7.26345880440439    5.49559257797593    5.12300956829724
H         6.75672496546273    6.09962251226900    4.38421240506537
C         8.63679848286544    5.59183751245846    5.27358462399529
H         9.20168880390735    6.27306387730298    4.65430338388818
C         9.28366057760024    4.81462458849300    6.22005284843787
H        10.35472759801558    4.88544549508551    6.34004861652763
C         8.55756005371216    3.95009727320924    7.01735819403282
H         9.06234539337725    3.34374695739895    7.75785283513383
C         6.56818705323511   -0.68812217939458    8.46611225753704
H         7.63487425403890   -0.72149535319332    8.22574088930015
H         6.21255389057076   -1.70533489221491    8.67088395308519
C         5.79464931936016   -0.08104544775617    7.30064936280710
H         4.76201955975180    0.10488719154692    7.61419887448497
H         5.77063717932657   -0.80328149495383    6.47767667681267
C         6.43671062915728    1.20987861855600    6.79826420031875
H         6.01851114775359    1.51309592959722    5.83104854457244
H         7.51586647794198    1.06384259205957    6.66279959426031

