83
CSD_code = QIXGIQ | q = -1 | S = 0 | Stoichiometry = C31H46CrN4P(1-) | MND = 8
Cr       10.93028785783412   13.39752632352256   18.04873457239720
P         9.48439446265898   13.11350543897827   16.32511115617035
N        10.12199727353044   14.73410019015702   18.78873109563212
N         9.71789370759172   15.69170939316884   19.26710432946471
N        10.13528361582849   12.29218788816718   19.11787617444244
N         9.73212294193130   11.49258255206091   19.82917053295534
C        12.40797403651826   13.23591859625741   16.44501563130867
C        12.62231557612814   14.47748923397800   17.09347323678562
C        13.02191936716256   14.19633105139456   18.43194064026955
C        13.06066762628467   12.78862711816952   18.59385050785874
C        12.69072771207863   12.18695768909281   17.35678074024664
C        12.85275984796615   10.74444230169714   16.97200701096398
H        12.06128243544507   10.44742224353494   16.27916889781186
H        12.77567174551637   10.10920247436205   17.85895941165657
C        14.19751839630528   10.49359869801731   16.27651175718609
H        14.22099013726982   11.00728201963720   15.31766039264863
H        14.34719513174574    9.42828646523813   16.09789944739391
H        15.02419052977224   10.86454212305394   16.87919050334166
C        13.45641712153006   12.05654979064624   19.84717829600446
H        12.75565567137693   11.23567797357628   20.03098564814191
H        13.37718675670080   12.74109624516856   20.69612857706928
C        14.87888940759085   11.48636533821425   19.80417779725365
H        14.94204630968392   10.65753084486672   19.10372401727459
H        15.17232764217422   11.12029533647693   20.78833861229217
H        15.59222160461066   12.24861118846245   19.49361435287397
C        13.40561852873861   15.22398256249663   19.46101649023374
H        12.95219863344738   14.97438291401493   20.42568809314565
H        13.00568995485497   16.19651083693880   19.16300031872007
C        14.92173688755254   15.34537110236714   19.64763895996245
H        15.41399711920518   15.53565842555119   18.69519768143685
H        15.33133971308790   14.42730041047819   20.06197514516884
H        15.16019603188318   16.16339301515159   20.32758014118276
C        12.61167449605910   15.81153016177842   16.40411518889768
H        12.23515683751769   16.58861493759026   17.07642989056903
H        11.93851149864254   15.76444080181198   15.54288364042218
C        14.00331654535903   16.21365877187824   15.90348160980307
H        13.96265744228256   17.16725257576144   15.37685713989299
H        14.38871462317589   15.45932888982901   15.21961532946693
H        14.69867463330486   16.31029441985163   16.73437740087375
C        11.92494562307726   13.08707068419124   15.06167928063501
C        12.79783358595840   13.06060970637870   13.98524571220378
H        13.86477450153345   13.12134236401105   14.16206955754773
C        12.32086235413483   12.97216561300745   12.68394617896406
H        13.01321788447114   12.94934274349670   11.85243199352061
C        10.95479788569273   12.93328206926054   12.45655684679132
H        10.57853880955381   12.88433841963140   11.44197213811896
C        10.07056662161899   12.96717042928121   13.51836412475995
H         9.00839060201753   12.96538255776143   13.32202586903829
C        10.53593510435629   13.02497389925357   14.83456131915155
C         8.21828777616713   14.41203954464926   15.79793310074106
H         7.73756553845091   14.15978484572645   14.84457718697123
C         8.97692358614602   15.72658291354928   15.64766206431888
H         9.54717626198376   15.89188745271755   16.56525647591279
H         9.68113290698187   15.64748992595377   14.81400403010243
C         8.03571108936734   16.90449421238904   15.42064416708125
H         8.61317286424843   17.82915972413338   15.33861218058866
H         7.49014811553353   16.76644970825352   14.48117031644643
C         7.04581586342661   17.00542567752360   16.57510943709078
H         6.37841985223811   17.86060294468837   16.43064220159120
H         7.59793687822311   17.14941417330982   17.50506260280682
C         6.24042363754958   15.71556396629759   16.67487174666540
H         5.67499736448063   15.56716223656156   15.74842403643338
H         5.52351914400482   15.78463181215258   17.49679830950085
C         7.17201033251146   14.52809747464398   16.90376921393155
H         6.58250105430993   13.61051332915222   16.96243862966535
H         7.69778675654692   14.64947287638787   17.85469110255928
C         8.37837681447807   11.56899978948018   16.22584777329147
H         7.78478420459453   11.66162222720262   17.14719465535020
C         7.43313625721998   11.34229256423981   15.04799628804026
H         6.77006865553231   12.19740925494550   14.90534515957047
H         8.01204345549841   11.19542560587373   14.13407359286494
C         6.58852076298454   10.09189692244092   15.29600480374393
H         5.99116929551326   10.23423069051223   16.19989026805472
H         5.90013198633224    9.93521126621950   14.45927292775867
C         7.48163826386731    8.86790028166802   15.47070411207000
H         8.04165975340836    8.69702511935138   14.54697092049199
H         6.86940563863374    7.98096357277171   15.65892578083547
C         8.45993485990219    9.08735312726943   16.62091176995903
H         9.12137991051043    8.22226475167341   16.71738338650966
H         7.90765291404427    9.19233960687364   17.55681265557729
C         9.28136106026717   10.35147978455765   16.39110058600331
H         9.89464229534496   10.23287935887836   15.49183036066736
H         9.93858201693744   10.52379642827811   17.24612476685333

