46
CSD_code = QIXJEN | q = 0 | S = 0 | Stoichiometry = C22H18ClMnN2O2 | MND = 5
Mn        3.54010860708946    3.15044371982319    1.51030595781085
Cl        2.37422527418296    3.45812244583763    3.32643888260759
O         2.39252902146149    2.04474974922605    0.77640746591667
O         3.65138467823350    4.47936676263579    0.47834966813129
N         4.50537625953825    1.69601389955846    2.33421407209238
N         5.22467619086629    4.17256346589070    2.46778555477094
C         2.42555693240581    0.79476553165910    0.48604796496001
C         1.48996583443237    0.23774637330609   -0.41781285447533
H         0.77285555977929    0.91099899469917   -0.86486232965060
C         1.48355557948195   -1.09935638147113   -0.71519974955370
C         2.43133948831637   -1.94771659567772   -0.10178274598350
H         2.41376016408736   -3.00217807658545   -0.33407972338655
C         3.35359242190202   -1.45055188420740    0.76949053657567
H         4.07291467970803   -2.10773700526735    1.23735516962567
C         3.39943757221341   -0.07268927051278    1.08825994896205
C         4.37091283148942    0.42767670417495    1.96784624134983
H         5.07926570368727   -0.29688901239122    2.36204803213998
C         5.40575327934693    2.00490384269784    3.35019790234215
C         5.88897491296263    1.10644537338073    4.30278903733930
H         5.51738727942922    0.09412704632592    4.33702635538075
C         6.81996838825230    1.51586809608360    5.23530215225224
H         7.18237315593888    0.81441325567899    5.97109836823122
C         7.29410059520261    2.82198546583058    5.23098868021058
H         8.03875109506257    3.12648996330125    5.95056738432126
C         6.80258695023443    3.73771410515274    4.32581320606779
H         7.17724651979469    4.74921248748733    4.33785917720389
C         5.82258087622807    3.35779747651526    3.40413181658103
C         5.35782499539572    5.46971860903990    2.46023571262514
H         5.86772975135980    5.98112461433497    3.27585128971897
C         4.86891204677723    6.28160788552210    1.40435267008613
C         5.18862611941998    7.64750752136622    1.32170366552440
H         5.83381977024629    8.07177167988223    2.07742307244076
C         4.71718808417270    8.42770196546123    0.29924720747447
H         4.98181211441780    9.47328932493049    0.24905877540272
C         3.88392189213290    7.88736552225658   -0.69308664875088
C         3.54458154026684    6.55348767422127   -0.62933596824752
H         2.89405540921140    6.11166033116159   -1.37087373910222
C         4.01680178239731    5.72654530822057    0.40214586536497
C         0.49002118349958   -1.68348406333605   -1.66954391311216
H        -0.16708277049541   -0.91641088958684   -2.06974518131375
H        -0.11638830973442   -2.43535322508934   -1.16567345560595
H         1.00379240605931   -2.17287197058239   -2.49644223711671
C         3.36722480673345    8.76619252327939   -1.78781062373877
H         2.86198145375436    8.18372896569430   -2.55332194242525
H         4.18303405399846    9.32218159986252   -2.24671923464036
H         2.66076381905850    9.48965009020992   -1.38125148640808

