104
CSD_code = QIXKAK | q = 0 | S = 0 | Stoichiometry = C54H45CuIP3 | MND = 4
I         3.92405151355756    5.36225078639528    5.44991088215845
Cu        4.19715743849393    7.84942633813291    5.70966242509758
P         2.40058604339479    9.10580837966696    6.47169123866562
P         6.00466698672007    8.38344340536856    7.06528440064621
P         4.89771731485062    8.73082031783906    3.62211225130557
C         2.61667727506390    9.23996254878681    8.27988722665308
C         2.31422580712385   10.34841402156880    9.06218050776922
H         1.91091797899374   11.24571969131226    8.61401886877825
C         2.53085157668208   10.30531016091129   10.42805137754626
H         2.29839790494036   11.17140340263731   11.03142205418904
C         3.03890783576797    9.16252428408567   11.02410010449462
H         3.21096885224441    9.14018078959046   12.09021088431978
C         3.31846395486237    8.04633602233958   10.25274420688467
H         3.70453786148936    7.14885070356704   10.71267522443456
C         3.11025385765716    8.08822794959798    8.88757314100177
H         3.31104492714743    7.21659386310006    8.27712104906572
C         1.91935230991249   10.79337385623812    5.98039021199594
C         0.83728638310228   11.03042115355779    5.13753625173618
H         0.20007760618122   10.21106055201771    4.83290138866643
C         0.56688860873303   12.31432746566092    4.70101785271796
H        -0.27814228719259   12.49099036308837    4.05164581559536
C         1.37135924373790   13.37149464040930    5.09361066734115
H         1.15055440058049   14.37337059283509    4.75581941280545
C         2.46294133079054   13.13941165709713    5.91476790036401
H         3.10242037805606   13.95608393451680    6.21853202697315
C         2.74588293582248   11.85596478154077    6.34215376474276
H         3.60904592957090   11.67028604123330    6.96641108055143
C         0.77060606250412    8.27519202429968    6.46640306883098
C         0.55868813411571    7.16236711214555    5.66325188561971
H         1.35475535832309    6.78160029253040    5.04226914962350
C        -0.67415424343833    6.53251726043375    5.66216516448247
H        -0.82726490012108    5.66425616595000    5.03908193610940
C        -1.69756420802414    7.01096985782272    6.46067195157138
H        -2.65940584164044    6.51946489565401    6.46172550697897
C        -1.48845558217896    8.12112848708392    7.26585806451002
H        -2.28658429793146    8.49376162747526    7.89185453752715
C        -0.26027353428261    8.75174017486522    7.27380313405869
H        -0.09643652664412    9.61587784956115    7.90368562590051
C         7.64445308038110    8.01001033498518    6.34571962202100
C         8.72667110900204    8.88126982231579    6.33974886727832
H         8.62019043999338    9.89365058331220    6.70411436331226
C         9.95266675361928    8.44904031747871    5.86787241681302
H        10.79122677611732    9.13103111433037    5.86175883426751
C        10.11328321322719    7.14877262146588    5.42032593876402
H        11.07709061405848    6.81666775486047    5.06345037794914
C         9.03906707818195    6.27503099660070    5.43483262619850
H         9.15947128084088    5.25819013133766    5.09282259968433
C         7.80815404721163    6.70450832112101    5.89009170420653
H         6.96730543745914    6.02456255096916    5.89942435177261
C         6.06177518405842   10.17413615324388    7.33802959812190
C         5.65190676923227   10.76662748550812    8.52993772549808
H         5.35686406900625   10.14848629418026    9.36666838421951
C         5.62152608210630   12.14561943018668    8.64024842636570
H         5.31319047991408   12.59925601090359    9.57126526614486
C         5.97626284781546   12.94319635485209    7.56298096213695
H         5.95852291484635   14.01902011751234    7.65850727434012
C         6.33598492212525   12.35895640937975    6.35798584056951
H         6.58486034768141   12.97570136195521    5.50614643680148
C         6.36766450919041   10.98253229291038    6.24320650909487
H         6.63299368867611   10.51686301384439    5.30037471618230
C         6.40403040220085    7.65102807834402    8.69389691093166
C         5.93711962054511    6.36542993487616    8.94592139251026
H         5.31814005336939    5.86267895137825    8.21627346317721
C         6.26740942853939    5.72355808271899   10.12561204689348
H         5.89958376300249    4.72571012418314   10.31401321875426
C         7.06767009779112    6.36055435112155   11.05851101590019
H         7.32133338397886    5.86491337922808   11.98419523366939
C         7.55739368393650    7.63069524527096   10.79800447039632
H         8.19937002222203    8.12028854817876   11.51646953841278
C         7.23967223084567    8.27239172800543    9.61605381039932
H         7.64632019358917    9.25242124733696    9.40800246926519
C         3.60731858429482    8.01321560703941    2.54205847300092
C         3.83075389249706    7.27830925088490    1.38432355660157
H         4.83730956597372    7.05958791743195    1.05810789568831
C         2.75555332426843    6.80963606530956    0.65051266064648
H         2.93434241785587    6.22795926253778   -0.24210897639635
C         1.45780460548155    7.07587032862062    1.05352535644003
H         0.62511672832748    6.69747675449236    0.47951244305689
C         1.22933884899741    7.82723920536556    2.19442572993651
H         0.21949726041444    8.03999911751018    2.51504347800446
C         2.30040772475337    8.29336590333708    2.93030881304986
H         2.13269898662469    8.88420919658253    3.82655351097864
C         4.94610353381232   10.35261168355811    2.76112644901289
C         4.50644974088099   11.47610934036948    3.44621705264588
H         4.20296743242639   11.38419088742312    4.47975287578349
C         4.45753745080091   12.70685861590351    2.81601594793827
H         4.10947572597024   13.57313288582814    3.36007961767544
C         4.85039463164833   12.81934600941138    1.49432208743717
H         4.81657837542075   13.77832281122589    0.99818894869780
C         5.28512588905967   11.69790901412598    0.80308894873452
H         5.58711163811178   11.78536057825394   -0.23070606960679
C         5.32793223583789   10.46677637207964    1.42750158733848
H         5.66066130518483    9.59270062312661    0.88511184647718
C         6.43769263365665    7.96764970454417    3.03113400489444
C         6.51246162922782    6.58655646975313    2.86280491282295
H         5.64375133588645    5.97089855229284    3.04462180838927
C         7.69904394215421    6.00050293830609    2.46415371526164
H         7.74134816167475    4.93127268117034    2.31808321277634
C         8.82635521503243    6.77795553758266    2.25879624592477
H         9.75129250857298    6.31941246401083    1.94134160542734
C         8.77095803894619    8.14502452207750    2.47521641754158
H         9.65416383232394    8.75228633591767    2.33811791853720
C         7.58631442632961    8.73832895600323    2.86582302148049
H         7.54755946414151    9.80819181307940    3.02787624984251

