99
CSD_code = QIXRUM | q = 0 | S = 0 | Stoichiometry = C37H55BNO2P2Rh | MND = 5
Rh        2.51294752852922   -0.89502319937128    7.62461304779642
P         3.32497991805954   -3.00076742126719    7.79568263294320
P         2.37667365521621   -0.38373739500858    9.82202693227685
O         2.41972767765321    5.67089924035891    9.62094713278738
O         3.91833610130810    3.95841800331594    9.76649677306605
N         2.36646643396568    3.91592839720518    7.86438108332260
C         4.62048047523590   -3.51774919404284    9.01784778135668
H         4.24950335309847   -3.23233196285253   10.00547278337304
H         4.73460797383955   -4.60418803636201    9.00590452474958
C         5.94484629446483   -2.81869894687574    8.74204072180927
H         6.41453565882415   -3.21264641393864    7.84403279069637
H         6.63591094987173   -2.95142982289976    9.57284430594544
H         5.77554056276959   -1.75316413107631    8.59601303498397
C         4.01955321792494   -3.69938786689474    6.21829733476645
H         3.21613446778356   -3.62214950290489    5.48135279503970
H         4.80501229835749   -3.00566351731310    5.90600118653288
C         4.56061977733239   -5.12343307165938    6.23165810046442
H         5.41184201545793   -5.22293758352863    6.89965342059500
H         4.89028831337817   -5.39354243435319    5.22920938770510
H         3.79802937145748   -5.83731677712854    6.53303879008096
C         2.01214045961628   -4.24114162071733    8.21205176131702
H         2.39122546240003   -5.25997844466545    8.11140172574685
H         1.74976592403857   -4.08131297016301    9.26001975049284
C         0.78709897267083   -4.01915358152136    7.33526545199598
H         0.53635381684124   -2.95387977917831    7.33175156536705
H        -0.06876239603446   -4.58172417334682    7.70362961534814
H         0.98229452304206   -4.32537439609035    6.30993125903897
C         1.66085886012625   -1.57030062224891   11.05349401294959
H         2.26112323827338   -2.48216879637495   10.99994330761686
H         1.75254386573072   -1.16957817726129   12.06530823463381
C         0.21182151562986   -1.88617501639997   10.70745981006161
H        -0.42984752199610   -1.02957486102377   10.89897498870391
H        -0.15791488026599   -2.72760736331126   11.29135504947342
H         0.13704754174035   -2.13277623617215    9.64870465582027
C         4.01496091802989   -0.03385996901568   10.60670615981384
H         3.88275108821993    0.46476512802074   11.56906965854240
H         4.49763016833924   -0.99759529547452   10.78962134658421
C         4.86785947165257    0.80828446381813    9.66605810679859
H         4.83342640118500    0.38284223805065    8.65879842009699
H         5.90531008802527    0.83381510213835    9.99587287235754
H         4.50055137134452    1.82980424856431    9.60623238815664
C         1.43909213090855    1.17365437403982   10.19412873807826
H         2.00913308982896    1.97410085802543    9.71396868836203
H         0.48426012452782    1.09702270872728    9.66675828492220
C         1.18459705406169    1.51888406248989   11.65565074324181
H         0.53990487875070    0.78679983560344   12.13621894453686
H         0.68512589148951    2.48534847263893   11.71483785217887
H         2.11256212015567    1.58260627964674   12.21957888521313
C         1.27813437524155   -0.08925797352624    5.99010481658810
H         0.27172892454855   -0.46151464422862    5.81883992635263
C         2.39414457388031   -0.76030162599152    5.42948888046223
H         2.22216150168256   -1.58511956510966    4.74478115262139
C         3.67878471708553   -0.13116855098455    5.41595267533018
H         4.48595317164762   -0.59642606459616    4.86182038311088
C         3.86191854011043    1.07649517887890    6.03718312782176
C         2.74991531466494    1.71855843514186    6.73943747289177
C         1.50119812555012    1.01467688833752    6.82248533084230
H         0.64999421883931    1.53655810820324    7.24931473219140
C         3.15359904720381    2.96587076686253    7.16310979276799
C         1.14151200028342    4.27046608450744    7.28503618690430
C         0.07629596951346    4.69586124746154    8.07821528838575
H         0.21456927892195    4.77188438754816    9.14474949009675
C        -1.13727006619458    5.02354133220875    7.50574043349435
H        -1.95236158319401    5.35044745231589    8.13608567420337
C        -1.31945757442164    4.92594065030908    6.13628758127239
H        -2.27159408805597    5.17696812282632    5.69266457317124
C        -0.26568679892877    4.50531474168581    5.34201709433254
H        -0.39167831528925    4.43279955626834    4.27104967108721
C         0.95293458221397    4.18185795875794    5.90484483616521
H         1.77176473879926    3.86241063212269    5.27755063634639
C         3.09479784320489    5.87550239112852   10.85909490180034
C         4.30600424479026    4.87049165074376   10.78921788997808
C         5.61539993375165    5.53336967198145   10.34479876337102
H         6.33837201047717    4.75046784345407   10.12675783145141
H         6.01040577242622    6.17949253183164   11.12324740041076
H         5.46518662747822    6.10838350865006    9.43597293931946
C         4.56832401133598    4.08794794026331   12.07580583514219
H         3.71231050220395    3.47884644548895   12.34694406329302
H         4.80130452595336    4.76822425387509   12.89033013295313
H         5.41623266953391    3.42706164804908   11.91341005227686
C         3.48850901836371    7.34700095239197   10.97943316968299
H         4.05401311451342    7.67490769046873   10.11353995036270
H         4.07569377197349    7.50743687368484   11.87950604625550
H         2.58444047282878    7.94830181534191   11.03524747088534
C         2.09894481598555    5.54075379704005   11.97763854823855
H         1.22460856393705    6.17753759215563   11.86134816270063
H         2.53479358302390    5.71513366004547   12.95676817040061
H         1.77610157169414    4.50622352962094   11.89959561676384
C         4.51444940402633    3.16540500521228    6.75376028482931
C         4.96572556753933    1.99779915083110    6.07766630335501
C         6.25592763243672    1.92973798531710    5.57655597344733
H         6.60434620151383    1.04086674471139    5.06855639963192
C         7.09098898480780    3.02068293756184    5.73453300001249
H         8.10236125710291    2.98335367318178    5.35477021151892
C         6.63955278526715    4.17870737706893    6.36455379242020
H         7.30829171327228    5.02423710369491    6.45309907111039
C         5.35699001569069    4.26481293183818    6.86838877091414
H         5.00178728971438    5.17176466855941    7.33565483590186
B         2.88052521818118    4.50878067460224    9.04823781738441

