39
CSD_code = QIXSEY | q = 0 | S = 0 | Stoichiometry = C18H12CdCl2N6 | MND = 5
Cd        9.11157678174574    0.91947488178479    0.83803534652429
Cl       10.12695167540075    2.06737525207989    2.58932566344568
Cl        6.81153776213708    1.17497138281644    0.38057864700333
N         9.04141889023233   -1.46804036297687    1.41110069337302
N         9.14622953832614   -0.41871805758059   -1.06238321042130
N         9.74056625295892    2.18489586905509   -1.16765641584732
N         8.03209011916882   -2.28295344091078   -1.92847893119651
N         8.34507908695786   -0.37409737188250   -3.25948119490704
N         7.24334813439566   -3.67305531625696   -4.10688862733025
C         9.00323207624758   -1.95430112258699    2.64000039070615
H         9.36877421257902   -1.29679848246744    3.42049113558649
C         8.52744310262366   -3.22841267920482    2.92865816771937
H         8.51066108542379   -3.58225362915146    3.94745951009513
C         8.07280128349886   -4.02286654441257    1.88750514731823
H         7.69211606463656   -5.01544718108296    2.07703073715993
C         8.10913943383726   -3.51828819155013    0.59800401589681
H         7.76388324368035   -4.07862802420539   -0.25599139314024
C         8.60155755055615   -2.22997019327175    0.40621780014827
C         8.60187977756311   -1.62532349738617   -0.93338678802228
C         7.97909523965177   -1.64563384513602   -3.09226548419118
C         8.90833496095491    0.20620147772728   -2.21165098051028
C         9.25858058571165    1.63242552154852   -2.28401005675440
C         9.03589454759479    2.36592252083579   -3.44589336493867
H         8.64380464297136    1.86801787442049   -4.31750599205994
C         9.31473066427621    3.72272816278120   -3.43433452989621
H         9.14510881081641    4.32416346658624   -4.31513307623460
C         9.80603685732359    4.29308431118356   -2.27093504121643
H        10.02711169372702    5.34739993952568   -2.21794120965903
C        10.00425269252475    3.47984104460551   -1.16049033383012
H        10.38802851164779    3.87803122926518   -0.22801935307044
C         7.45316082329186   -2.36783067660124   -4.25430311016312
C         7.19394731942837   -1.69000813280422   -5.44643087266480
H         7.37906785085697   -0.63035764937983   -5.50552243346720
C         6.69546659581259   -2.41077419480943   -6.51789444769855
H         6.48108579305235   -1.92131688123339   -7.45680883982089
C         6.47621968203137   -3.77044726909767   -6.36250728205387
H         6.08902874536826   -4.36919542652315   -7.17203646389897
C         6.76880358004628   -4.34821470285644   -5.13154636116881
H         6.61585433090758   -5.40580006091057   -4.96101146085213

