78
CSD_code = QIYBIK | q = 0 | S = 0 | Stoichiometry = C25H44N2O4Si2Zn | MND = 4
Zn       -2.11160736721464    0.26159667305490   14.90384119995985
Si       -0.72401179393872    0.97408754883987   17.77259822290657
Si       -3.38302142385863    2.51273052100366   16.72011482776949
O        -2.83991059040512    1.26165821371676   13.36656032395074
O        -3.67929020344894    1.70770961874551   11.34088806032284
O        -2.55846857499199   -1.96168419555043    9.96279135647269
O        -3.66259727061141   -0.04367442182130    9.57984670023434
N        -0.31646371383793   -0.07138332943174   13.80121253619598
N        -2.60849048741159   -1.62864682783723   13.91425792761704
C        -1.99351969168206   -1.37540669301642   12.60230191754422
H        -1.93545919499687   -2.31554655171940   12.02903589810944
C        -2.74530829714132   -0.40589213736858   11.71160617762185
C        -0.61961655749494   -0.78781406195514   12.72080716435679
C         0.27554594780276   -0.92019261467496   11.65644961145677
H        -0.01688155579446   -1.50595727474464   10.79907027750948
C         1.49788623297534   -0.28781107962955   11.72300430284807
H         2.20797767465193   -0.37574883111572   10.91438284227323
C         1.80194387640060    0.46453346224073   12.85444932310523
H         2.74694161468326    0.97528884177414   12.94759833654362
C         0.86299133160695    0.54393637643222   13.86078326889104
H         1.04899446107600    1.10658261054203   14.76459747826096
C        -1.95214506704032   -2.78544635228939   14.52765610986773
H        -0.87819943756603   -2.59277396472201   14.58130190891873
H        -2.10908731144287   -3.67675022429821   13.89976785619110
C        -2.50090064176157   -3.04145652024568   15.92547557912124
H        -1.98789607176839   -3.90078589137193   16.36068389119204
H        -2.29851673523472   -2.16923040731692   16.54985630490733
C        -4.00354246477468   -3.29081060477099   15.86280962216759
H        -4.41195641485754   -3.39638315495984   16.86891663685148
H        -4.19879265791162   -4.22017066108155   15.32195989957351
C        -4.67314735420335   -2.12943613511146   15.13674364465380
H        -5.73993875659852   -2.32112803217603   15.01131198556893
H        -4.55589730896882   -1.21237559025637   15.72002183655573
C        -4.03454499214434   -1.92588734599515   13.76981989409326
H        -4.16538864987082   -2.82803685701253   13.15300277069061
H        -4.51135785432973   -1.09197597825450   13.25274791931331
C        -3.06765632569000    0.85944107900944   12.18768851208648
C        -4.02591398097898    2.98580102258351   11.85817696305972
H        -3.11113085787521    3.53858494801527   12.10664830841061
H        -4.60521239771787    2.86459664872457   12.78137779468752
C        -4.82977953678295    3.71356856206809   10.79581389481928
H        -5.11217600701589    4.69861624835937   11.15690640073375
H        -5.72538426058615    3.14725841438177   10.55675268475906
H        -4.23815748518230    3.81790947351123    9.89081315350703
C        -2.96338799114177   -0.88020303931265   10.37273866045532
C        -3.88478553925007   -0.49585645238411    8.25096883332918
H        -4.40647286327125   -1.46062753050693    8.27978833348102
H        -2.91789299070499   -0.65465423681032    7.75702426588587
C        -4.70651793285897    0.55363408169982    7.52530842262552
H        -4.88598431456437    0.23918891471085    6.50083200334806
H        -4.17576624804911    1.50151145762295    7.52329175472737
H        -5.65821143037539    0.69349280818786    8.03024983725837
C        -2.34881344630446    0.91244683514490   16.79305164415880
C        -1.03514720089363    1.01508572040615   19.65868455319324
H        -1.66761831072495    0.19124232721355   19.97376324767995
H        -1.52171608536413    1.93401084933037   19.96344090985265
H        -0.10235553490721    0.93888378259024   20.20916042323356
C         0.30030057637649   -0.61620828209822   17.45752482507888
H        -0.16706531739014   -1.47969944653981   17.92028626769086
H         1.29983818394678   -0.53225645967864   17.87318163679391
H         0.40086623637643   -0.82805169795943   16.39777164841747
C         0.33476187872320    2.49320601405779   17.30307437973174
H        -0.00237895557498    3.37489652923607   17.83748935923508
H         0.26760848380337    2.71182304414346   16.24249169778538
H         1.38152407596201    2.34333707666967   17.55018965515698
C        -2.59520305061326    3.83417317045092   15.59295911544326
H        -2.28938140339635    3.38570529825654   14.65408014305280
H        -1.72369575596148    4.29006455882725   16.04931167503662
H        -3.29997556735692    4.62868386411282   15.36699315944383
C        -5.10870971447818    2.05919653449313   16.02742536453842
H        -5.00964988983818    1.58792232921357   15.05467751656366
H        -5.73645104194179    2.93683800681760   15.90809786574405
H        -5.63573506183688    1.36846218122392   16.67880915453061
C        -3.64812567282898    3.29062938491418   18.44498819187607
H        -3.99634355157453    2.55889117014547   19.16524803992388
H        -4.38625561573729    4.08482622267206   18.40118016055197
H        -2.72922194967115    3.72036846600708   18.82738504445750
H        -2.97394884464620    0.17744199287890   17.30388088403232

