55
CSD_code = QIYHAH | q = 0 | S = 0 | Stoichiometry = C27H24ClMoOP | MND = 10
Mo       -1.94704494484506   11.95559360191346    8.31276357520777
Cl       -3.28070666472996   13.57755065279214    9.75240296664996
P        -0.05501335938647   11.53181843059691    6.89646580654840
O         0.21281371840998   13.24176531227128   10.07980761613648
C        -0.58470019380391   12.77098030425660    9.40584389654140
C        -1.91207054478738    9.77590677053305    9.00961957706395
H        -1.09389294065155    9.21982843627178    9.44945153728699
C        -2.92932510300382   10.45397869641990    9.71031182045412
H        -3.03415373446154   10.51460113889438   10.78571117415300
C        -3.93756295504009   10.82102772607366    8.76592047748794
H        -4.89366945017606   11.25999249872886    9.01790104777509
C        -3.54302010843813   10.37873509447609    7.50216550332659
H        -4.13854467576715   10.41281355406386    6.60131171983911
C        -2.28458694965133    9.75290428483821    7.63445134623192
H        -1.80358967753928    9.15524135201128    6.86979016456345
C        -1.18547468628420   10.51256341320879    4.54582262437905
H        -2.12052675307904   10.88788486814155    4.93785820343250
C        -1.15816835421330    9.89480378038394    3.30850942060664
H        -2.06848634849179    9.79920168972171    2.73491648461684
C         0.03361414608875    9.39883797813672    2.80732797824346
H         0.05603451599275    8.91676978343772    1.84146403855078
C         1.19584418460054    9.51638384667677    3.55188821964276
H         2.12602769636225    9.12365764103265    3.16799589460143
C         1.17167521245274   10.13293997660372    4.78934944027613
H         2.07935526315674   10.20244027492942    5.37242837894004
C        -0.02176584955764   10.64157903791071    5.29632041921500
C         2.25091371866350   11.49056298899714    8.47936204052514
H         2.22890107039509   12.56929306826861    8.41270844846740
C         3.20819998977911   10.86016553764928    9.25340522048205
H         3.93315793740762   11.45100782326565    9.79310587856485
C         3.23622427475152    9.47802937670527    9.34164680605630
H         3.98350563225165    8.98958566371498    9.94903481084536
C         2.30378597031895    8.72093127330605    8.64993983157669
H         2.32424326901569    7.64271131932497    8.71666654216124
C         1.34525899118354    9.34512867596871    7.87483645976450
H         0.62184280919341    8.75489195709184    7.32591904481269
C         1.31576719680909   10.73570439920048    7.77733587248902
C         0.59906217146338   13.14542712350875    6.41304364400437
C         1.82056713882083   13.33531908530638    5.77629001247742
H         2.42592141225645   12.48402940332497    5.49948430237685
C         2.27022167140628   14.61867253925903    5.52735149538583
H         3.22439790318437   14.77199730957412    5.04593452296408
C         1.50169355348157   15.70729388591315    5.91464983032162
H         1.86273434868318   16.70903749861884    5.73442839994218
C         0.27620036594673   15.52015258110989    6.52609019672339
H        -0.32161811263076   16.37196470620608    6.81652429030443
C        -0.20371411601127   14.23427068199878    6.77186162481098
C        -1.53491974702670   14.00849166880703    7.35072203451556
H        -1.91552240210401   14.86489388924945    7.91082640349050
C        -2.50122035584562   13.28273074556314    6.59754511463454
H        -2.13713534259576   12.93688434156569    5.62538996966586
C        -3.92587186818306   13.76220285834402    6.53538508447724
H        -4.26703878857081   14.07668853198319    7.51892391044863
H        -4.58838044674788   12.98212941134679    6.16262720158278
H        -4.00033968847994   14.61180151051239    5.85286167436762

