69
CSD_code = QIYKOB | q = 0 | S = 0 | Stoichiometry = C26H26B10N4S2Zn | MND = 6
Zn       10.98710699055946    3.25812178974262    0.34297330563437
N        11.77050328492405    1.97619041699235   -1.28789477176397
N        11.03077236142350    1.19265561900608    1.18477341778051
N        10.69520423590217    5.04666509376765   -0.95733413430413
N         8.94777346464526    3.04451316600343   -0.49597392526832
S        10.01436047245325    4.31828708705376    2.26332427491819
S        13.25941788331089    3.72631058426215    0.95322597354328
C        11.50163826096190    4.86306236703862    3.10584787076086
C        12.99385574849169    4.60852568843967    2.49264735915656
C        10.66863849258362    0.83979651425795    2.39853410423546
H         9.88479197549307    1.43289704459932    2.85085399738832
C        11.25430515294511   -0.22629622587930    3.08852439918390
H        10.92090323765584   -0.46626962857889    4.08561731832333
C        12.25927564145830   -0.93831141304971    2.48066681288648
H        12.74616962311005   -1.76094881142896    2.98431010353168
C        12.66394279421521   -0.58396995010612    1.18161258050481
C        12.00496722246817    0.50556662600194    0.56967614354008
C        12.39343073724634    0.91922039154913   -0.74603342686561
C        13.42645384969966    0.22215603606874   -1.41244607421873
C        14.06367101330400   -0.87544134368334   -0.76821887717155
H        14.85456043841989   -1.38684294226087   -1.29723648238607
C        13.69889756442048   -1.26125390334837    0.47909764053373
H        14.19181545867556   -2.08771734158359    0.96986956127417
C        13.78343545280323    0.66724833826546   -2.69552619728547
H        14.56980868341766    0.16119554835973   -3.23679152436493
C        13.12587694542669    1.74727604491765   -3.23652539904499
H        13.37428069486227    2.11604259309929   -4.21942597472717
C        12.12694238535317    2.37297620362914   -2.48924244991840
H        11.59539605218277    3.22949925450900   -2.87915832793091
C        11.56417748195924    6.01335388215357   -1.15537286735595
H        12.60751784229419    5.73126900128118   -1.10395709889308
C        11.18754355558380    7.33661362204345   -1.40692155220534
H        11.94514319573874    8.09004294419021   -1.55309486874885
C         9.85113378843604    7.65021220248924   -1.44713621879061
H         9.51854011710213    8.66229893821072   -1.62739919131568
C         8.90034214218384    6.63435417236172   -1.24372920558017
C         9.38459087169895    5.33020618642667   -0.99820032699275
C         8.45708870504552    4.26423256729210   -0.76048413393417
C         7.07044048851431    4.53586274542342   -0.78785504012943
C         6.61814298177296    5.85970208138718   -1.04938425098241
H         5.55332269009163    6.04113609562425   -1.06022055007725
C         7.49758743698717    6.86865932366753   -1.26510458602411
H         7.15164067334082    7.87492291321396   -1.45124056838389
C         6.19690943428270    3.46513236354293   -0.53799236082962
H         5.12960679434524    3.63301206222804   -0.54833175925005
C         6.72078006320184    2.22035239356623   -0.27784593222881
H         6.07943222570813    1.37546973299388   -0.08114869843024
C         8.10713644675799    2.06102126186627   -0.26358625594808
H         8.55385239381924    1.09937606325980   -0.05426693300883
B        11.53490213036789    4.81993514570656    4.82652788013218
H        10.57224882458608    4.40065663261298    5.35603336481652
B        11.44013176202379    6.35812833398875    3.95411291736829
H        10.41591399366366    6.93503439584916    3.91637692580717
B        12.36274601267806    6.20406581619095    2.46644436986403
H        11.99249011244438    6.60280249331345    1.42046670782748
B        12.51562957528504    3.71476171856163    3.87889557491393
H        12.25434719693882    2.57969925570991    3.69524584754060
B        12.55599348608827    6.18414348719823    5.32191147560319
H        12.36542862521122    6.74893875985063    6.33766031059009
B        13.07139363878691    7.04812073771629    3.84247789305760
H        13.25200252688332    8.21141631455990    3.80306772418786
B        14.04351928664818    5.91577514265894    2.88232001732821
H        14.86963367110957    6.17582810544936    2.08683949841277
B        14.13846608634939    4.37767084465477    3.75520552466474
H        15.02484845645040    3.63993906159533    3.52422540011630
B        13.22795268415888    4.52894482486405    5.27109743348441
H        13.52221782442345    3.91955305435534    6.23518966746750
B        14.18484749134960    5.90786412972535    4.65123806506879
H        15.17046116728289    6.27073634459269    5.18408850292617

