38
CSD_code = QIYMAN | q = 0 | S = 0 | Stoichiometry = C15H19CoINS | MND = 8
Co        8.01107316702854   10.98973373998765    2.56342426689634
I         9.83400477305076   12.38496735803797    3.62406347703158
N         8.20969437265759    9.63483716503308    3.88363450346611
S         9.38978013595419    9.30968825407511    1.68323279725706
C         9.01849523132741    8.75912401449085    3.25880767648333
C         9.46763340127757    7.59370231003507    3.88495203083960
H        10.11824958148747    6.92343140905630    3.34766163240346
C         9.06621441398724    7.35915063359850    5.17919609288091
H         9.39527053341272    6.47290825390019    5.70030865359871
C         8.24030086807872    8.28340420395673    5.82294034142623
H         7.92427669326814    8.12922436897752    6.84141016075869
C         7.84075097796868    9.41298425761783    5.14192233279972
H         7.22102583177977   10.16582318264513    5.60991048266308
C         6.44985210382113   12.39244115640636    2.69474945529918
C         7.20779557789037   12.59283518845923    1.48259274471686
C         7.13592141812126   11.40696361070368    0.71714753531568
C         6.36539283502143   10.44967405445897    1.46203611117530
C         5.90121220996323   11.08424820763120    2.65413955723087
C         6.13910935295559   13.46795550439769    3.68234783064624
H         5.41138781371518   14.15657555551205    3.24888331742823
H         7.03165337754031   14.03727162621299    3.93547492200513
H         5.72263765395123   13.05966232948612    4.59989751965942
C         7.76663113309437   13.89951277250464    1.02433230477382
H         8.65761753504972   13.75632899035543    0.41730604089328
H         8.02747590205097   14.53454551405429    1.86665585477593
H         7.01859300949229   14.41574570324945    0.41916229534714
C         7.62917669099760   11.22801362145842   -0.68011222676864
H         6.83153989546705   11.49185818229235   -1.37763861634626
H         7.92175841663703   10.19735643632221   -0.86789432016319
H         8.48393368389372   11.86998134273535   -0.87939498081906
C         5.92016013481772    9.11894237262037    0.95337606349071
H         5.04691564903682    9.25048450504472    0.31117369107905
H         5.64525585990237    8.45410416456718    1.76999432635958
H         6.70286859876753    8.64191185299448    0.36669714808143
C         4.90750111189838   10.50169063778878    3.60606995041983
H         4.91355711901077   11.02583606457030    4.55875897634907
H         5.09953501521657    9.44570156132921    3.79020781417126
H         3.90804792041311   10.59097989343159    3.17587223637480

