63
CSD_code = QIYMET | q = 0 | S = 0 | Stoichiometry = C24H26CdCl2N10 | MND = 4
C         8.73706718965832    2.72365493804717    1.03915639887737
H         9.24275313665172    3.11615982403786    1.90743607675066
C         8.55153102169792    3.48467933327236   -0.09306200742472
H         8.92293435517045    4.49813061043379   -0.11179071798789
C         7.89149839401076    2.98694745689660   -1.22548530162263
H         7.77657526038708    3.63493568611154   -2.08103485587932
C         7.39014164191768    1.70782625969002   -1.27119470610528
H         6.88035557599005    1.31728411948948   -2.13612719717023
C         7.56490710286766    0.91828430896367   -0.13575979773512
C         8.23331584793261    1.43059383015438    1.00368686410629
C         8.69078750178718    0.30482452540043    3.23146578335395
H         9.69881640128643    0.72950578457401    3.29757955116099
H         8.71229976137650   -0.75894109625672    3.49393053408968
C         6.59849222512271    0.64208240363375    4.55708190681311
C         8.07959067370519    2.26492637272666    4.67442145400371
H         8.99655733479046    2.78665399030268    4.49461597339636
C         6.98591552161753    2.59906828086589    5.41283073440809
C         6.69647456019856    3.82375036662793    6.19938484917214
H         5.85551945452116    4.35527978780247    5.74925081387460
H         7.56484600849614    4.47644383907411    6.21986085804595
H         6.41438616206919    3.55899374400867    7.21943651420547
C         5.96834500059825   -0.65299683082603    4.21220940806016
H         4.92048178366959   -0.63839866229417    4.51373358905854
H         6.46988381357540   -1.47067878916624    4.73188874534980
H         6.02960854617894   -0.84711335163263    3.14169746817683
C         0.45675864718638    0.24369467114570   12.52510593163006
H         0.82322071020193   -0.65953703622558   12.06242060746681
C         0.48657863080223    0.41918386974583   13.89010373648210
H         0.89045611883786   -0.36501069399412   14.51272988712905
C         0.00939791039766    1.58756670831512   14.50141216523299
H         0.06165367518722    1.66405317400872   15.57692744699255
C        -0.51757460098465    2.62654363470438   13.77182176633995
H        -0.88874004649697    3.52640939844432   14.23356242376676
C        -0.55717163577987    2.47253477659497   12.38675756803122
C        -0.07186420640725    1.28838095809405   11.77834357872595
C         0.07242550180626    0.68490375355499    9.32129126471411
H        -0.58213279445012    0.96554665737624    8.48972525041779
H        -0.07344469916278   -0.37031673158126    9.57405100698519
C         1.92702106611962    1.89584524723003    8.17535025362508
C         2.51355564995876    0.10422371661975    9.30501973811804
H         2.39503298634451   -0.77305836058813    9.90632164592458
C         3.61407086492245    0.65727293293848    8.72883397327284
C         5.03139421373635    0.20922079876048    8.75190871975329
H         5.35807688590632   -0.01373779978497    7.73440428340991
H         5.13332518891137   -0.68296916849826    9.36348356937736
H         5.67020930354356    0.99563422448723    9.15344084325670
C         1.08276985603599    2.95390544702176    7.57556210926526
H         1.72086123558016    3.73417338685175    7.16099225557670
H         0.40562897519666    3.38322655527449    8.31409115852923
H         0.48884098444359    2.53301988329712    6.76092416796329
Cd        3.89855065356101    1.95743956840507    5.86673555411132
Cl        3.36190274458820    3.99765194127699    4.86869641605859
Cl        2.55328500064624    0.10484589968950    5.30484605611144
N         7.19883517922451   -0.36565477572805    0.14587529526918
N         7.57323595314706   -0.65726713601271    1.31290282997651
N         8.21562571771877    0.38498861720574    1.88231856791352
N         7.83434000508609    1.01903269382242    4.14065230562652
N         6.07974951684793    1.57246028278172    5.32841416872367
N        -1.00459050358338    3.29025592115513   11.39060892999922
N        -0.83618963492385    2.71870523577330   10.27934697768903
N        -0.28492203911387    1.50041209477541   10.44706407169866
N         1.44342549079574    0.88889591574640    8.94204046906631
N         3.23141721889579    1.78012700536753    8.03770006679308

