61
CSD_code = QIYMOB | q = 0 | S = 0 | Stoichiometry = C17H30B10NRhS2 | MND = 8
Rh       12.11455756793771    9.07243885022936    6.51542437633426
S        10.05956494932141   10.15648108709332    7.04228589683933
S        11.27386422552545    6.82211460988769    6.81065855131666
N        11.06745730846045    8.44331796085371    4.89741153892204
B         7.64650939621974    9.50718739056719    8.62116453759685
H         7.14067003368187    9.56002630923571    7.56279703342287
B         8.38594865024019   10.88897184672536    9.43274983320971
H         8.29741288827349   11.95062295872233    8.93606477272826
B         9.93518123810379   10.39411781632080   10.12554648081876
H        10.83896243227887   11.14447687041486   10.07582940168505
B        10.20118140391308    8.70421421098136    9.73372518995915
H        11.21425376628303    8.25335068871979    9.34556934643001
B         8.92546843712110    7.74612792874914   10.47826110584230
H         9.13266494865307    6.60457031905722   10.66903181561073
B         7.36650812736931    8.24050348112522    9.80958175990561
H         6.56189220726289    7.41846236990746    9.56396498852513
B         7.08773802542314    9.95070201381745   10.22096476096562
H         6.01105191696599   10.39705870161615   10.38180853553564
B         8.50412732647959   10.50086194964878   11.16566528671739
H         8.41288032139832   11.34192047820314   11.98431973571030
B         9.64117464547263    9.13167913746835   11.34223477675714
H        10.34199777721784    8.99868084152645   12.27884767070797
B         7.87507936050441    8.84882314849388   11.39595699612312
H         7.33568841098464    8.51114375239095   12.38606635497237
C         9.37172222356941    9.73489464775258    8.64539183750400
C         8.78667158098839    8.26930721323602    8.86575946625769
C        10.65351323496182    7.21412473820946    5.26473954304636
C         9.81564315177818    6.44867810540469    4.44957291680519
H         9.49909862971541    5.47339789405122    4.78210272180298
C         9.42165588479933    6.98214824076467    3.24403567808367
H         8.77518114249828    6.42197198355201    2.58540495630074
C         9.85400062962824    8.25907641173375    2.87936778875081
H         9.55213099244321    8.69794083817074    1.94266389504196
C        10.67009417119666    8.96205268406491    3.74126898063076
H        11.01162009663124    9.96289132203506    3.51154112270942
C        13.71338566540931    9.62141836996980    7.92219847476252
C        14.29878355615655    8.75001742929928    6.92556923185863
C        14.17946777399349    9.37604629476776    5.66090079882290
C        13.51322168881675   10.64034655040317    5.85862691532677
C        13.30552600622212   10.81864362845642    7.26269225235831
C        13.88482015839094    9.44717826018509    9.40090035963141
H        13.84073315065142    8.39741255624804    9.68010958421219
H        13.11535634597628    9.97757499878315    9.95548679188097
H        14.86102998153756    9.83728088944272    9.69645261464035
C        15.03417489588291    7.48465874269471    7.22844625079440
H        15.10497124016675    6.84731149372350    6.35022923198000
H        14.54048180200212    6.92534250238032    8.02033708792890
H        16.04556734180470    7.72549497708090    7.56125190584387
C        14.76956712507764    8.89733042998646    4.37172656713593
H        15.77696373756435    9.30333926830401    4.26070190951730
H        14.17719436056502    9.22417366709176    3.51932273117060
H        14.83670577959462    7.81184148908435    4.34666944734197
C        13.33569536221897   11.71817510686127    4.83595486256728
H        12.41477034568291   12.26985317030628    5.01484765875002
H        13.31386624606600   11.31100427338022    3.82769388920795
H        14.16946620626795   12.42055682065801    4.89933722221319
C        12.84428378515202   12.09346025413466    7.88981506968128
H        13.49241976762148   12.90832222903516    7.56620623849513
H        12.87775224055197   12.02812744522064    8.97318982235910
H        11.82389733804609   12.33311732404822    7.58978014479814
H         8.93843099531762    7.58063302773668    8.04397328311836

