36
CSD_code = QIYPIX | q = 1 | S = 0 | Stoichiometry = C17H11N3O3ReS(1+) | MND = 6
Re       12.35293347906096    3.88841093242278    6.36160140765405
S         9.13631473960073    6.49731909806517    8.44387904083994
O        12.61554523801243    4.17067147905476    3.28544591698938
O        14.41123727213305    1.57837706281166    6.25863178391274
O        14.52941081589862    6.01935050736316    6.90814694238755
N        11.96419266543736    3.67438924410034    8.51402189767465
N        10.80468470661583    5.39788126961211    6.80331294880939
N        10.77761449663669    2.60878472035230    6.14520705150077
C        12.57775046013021    2.83898929808571    9.34585502603267
C        12.24227511360972    2.72992495973305   10.68574523776591
C        11.22107562656045    3.52214396861888   11.19140086906416
C        10.57865171329829    4.39835148176823   10.33585718573432
C        10.97786629865410    4.45144946843644    9.00227876760776
C        10.38500084941886    5.36198842752951    8.04472629192507
C        10.16435548076249    6.35806209912530    6.07338792772063
C        10.39007206169499    6.68296750613246    4.73404303866679
C         9.64751676651622    7.69148997656349    4.16372448890915
C         8.68272213494881    8.38542245309968    4.89794311658834
C         8.44604912912915    8.08771300740517    6.22437094207518
C         9.19352087063337    7.07513811269260    6.80479344551967
C        12.51673489237673    4.09543347028177    4.41890639924470
C        13.66165863303417    2.43609621592920    6.26706631811176
C        13.75426002327329    5.21805145006738    6.68544128777100
C         9.88226439249524    1.90431918738688    5.99940973078850
C         8.78764509135260    1.01858291160222    5.80102779327452
H        13.37193895937541    2.23591890052709    8.92657253007324
H        12.77553447821862    2.03814455732271   11.31665026997321
H        10.93512013500868    3.46175698464627   12.22943887880429
H         9.78312773940669    5.03994402768098   10.68120711752218
H        11.14475838150819    6.15107143467467    4.17724774689558
H         9.81512915314638    7.95455316507260    3.13148926317264
H         8.11718332046939    9.17118100284154    4.42295847684829
H         7.70900281351170    8.62493159447599    6.79908144646242
H         8.68656523113301    0.35008288677607    6.65660688954995
H         8.96690969935743    0.42392498834874    4.90421985867095
H         7.86417713758116    1.58438214939210    5.67410266546013

