63
CSD_code = QIYTUP | q = 0 | S = 0 | Stoichiometry = C30H26N2NiO4 | MND = 4
Ni       -3.02557193268450    7.35247577404791    5.30201814458827
O        -2.87286464833821    9.05593448870956    4.59985915437155
O        -2.78432179252277    6.67652580056926    3.58627888206703
N        -3.48934692183103    7.99011143661578    6.99204347484717
N        -3.11461747928549    5.65463403099662    6.02147737455500
C        -3.56025228052944   10.34377374031606    6.49732111557843
C        -2.93395223367663    5.48166311180479    3.15823063329976
O        -2.88359612460845   13.67173148452640    4.09617823134636
C        -3.74241109931597    6.93387279786802    7.96804007898043
C        -3.13075960170323    4.34529331819361    4.01143551053314
C        -3.75481129197081    9.21495769725054    7.32300123361241
H        -4.14367238977728    9.40972494351166    8.32450475760993
C        -1.51485240867304    5.75517972509036    7.85751531477270
O        -3.01340210107331    3.69191637520837   -0.08861854190002
C        -3.09360768168281   10.18994975221048    5.14749760535929
C        -3.12849262277207   12.62289244622659    4.92540595515109
C        -0.61354160730846    6.50158324927462    7.10773770054940
H        -0.94736146466800    7.01192300375220    6.19691573501290
C        -2.88432372610321   11.37095815394907    4.40261546600879
H        -2.52756807175111   11.28041105622656    3.38955139374506
C        -2.88784588022992    5.25079696910797    1.75998956142098
H        -2.73895964664326    6.12063859028997    1.14114207386755
C        -3.81009999020510   11.63306439041117    6.99743015939095
H        -4.16835858639618   11.72982109646968    8.01336335340831
C        -3.35226186036787    7.26344861569842    9.38905296363129
C        -3.26505637688804    3.06420790332021    3.43825850970295
H        -3.40887636705043    2.21819215777209    4.09571728978806
C        -2.97742108034208    5.67689821047679    7.46568352107869
C        -3.15745804115470    4.51204635278231    5.41067149499774
H        -3.20821443979272    3.60347557016770    6.01549239988975
C        -3.60410936506497   12.75625908802396    6.24526278691334
H        -3.80462156343327   13.72706635695029    6.66813883222975
C        -3.03358491880047    3.99012987510572    1.23455090031845
C         0.70704182577550    6.60648220042992    7.50483535995287
H         1.39820288791569    7.19037568554087    6.91561427220170
C        -3.22259262395763    2.87927304414052    2.09006616768612
H        -3.32922931254878    1.90467795583757    1.64296764812559
C        -2.22581866753861    8.02576811968181    9.67675791582023
H        -1.63837504892084    8.44150630371529    8.87195567897020
C        -4.09723659863107    6.73824990830197   10.43698028127810
H        -4.97595584985925    6.14538434516930   10.22379577925655
C        -3.11297663694718   14.97942506651190    4.56128046411228
H        -2.84678577173002   15.63580683104520    3.73399797411243
H        -2.48420758254016   15.21720550317529    5.42551885196732
H        -4.16461777654268   15.13739998229918    4.82156789873307
C        -1.07217132480812    5.11207364083702    9.00589531849296
H        -1.76650894354729    4.53227619904045    9.59762950395039
C        -2.84191989912598    4.74077254326512   -1.01211198747079
H        -2.86774280875364    4.27535806590551   -1.99625403952604
H        -1.88014798177993    5.24324908362221   -0.87167781932872
H        -3.64882891065358    5.47576339331914   -0.93526549747699
C        -1.85562431473498    8.25579167711059   10.98896183899631
H        -0.97848726443497    8.84924119403842   11.19897186057098
C        -2.60047604107895    7.72494786582852   12.02847169539313
H        -2.30799573375030    7.90367936039023   13.05233672398523
C        -3.72380352095352    6.96626956166879   11.74967952490884
H        -4.31217221641857    6.55139093054667   12.55472916675595
C         1.14037228341908    5.96766015410578    8.65471361605452
H         2.17114134297082    6.05154767946526    8.96529292196577
C         0.24850816647849    5.21929035395753    9.40326706929626
H         0.58033003003906    4.71763394772643   10.30010908281442
H        -4.81820783651880    6.69724803941263    7.93972625079368
H        -3.41731827417727    4.77469380098648    7.91712341087198

