63
CSD_code = QIYVEB | q = 0 | S = 0 | Stoichiometry = C30H26N2NiO4 | MND = 4
Ni        0.76140054319165    1.29299863502847    1.45001073586981
O        -0.19759940107371    2.87723439267282    1.32438349720174
N         1.58339849150654   -0.37714087903162    1.47311516710959
O         1.85033242530691    1.90683630671164    0.09319483084517
N        -0.29864438359841    0.69176770793364    2.83425519762709
C        -1.38000138132396    1.21638540777194    3.32056969464251
H        -1.86709020187307    0.70989690256707    4.15720676419276
C         2.76029685286489    1.29484706540238   -0.56546413226918
O        -4.95789428079792    4.53356410562627    3.48431538783087
C        -1.97413042733031    2.41281877731503    2.86297162587414
C        -1.31222292668227    3.19443203451274    1.86556498767150
C         1.01350601814729   -1.30232610378931    2.44900201534864
C        -3.19833862809255    2.84647655241044    3.42144842193483
H        -3.65564768233725    2.22002237734270    4.17255990056821
C         1.29387492249938    0.05529266099073    4.56036032087416
C         0.30094247003660   -0.43572947795519    3.52473815030835
C         3.11205243245177   -0.07504136919779   -0.36418602769001
C         2.00463739953483   -2.24102351265957    3.09600650975444
O         5.75025440303806   -0.45781965436730   -2.94953416639344
C         4.11010045085882   -0.68416937798146   -1.15906969112111
H         4.33544478825275   -1.72289161011755   -0.96894795398443
C        -3.77746071124408    4.01992387207596    3.01622084898649
C         2.46738478448696   -0.83270224028435    0.63913453162695
H         2.75772091424825   -1.88207239992370    0.71699178699923
C        -1.94927870557296    4.40856840588948    1.48178766637341
H        -1.45797860680669    5.00689931988484    0.73062712871185
C         2.09856559678004    1.15993268471276    4.30792363352466
H         1.99694342609065    1.70716903353786    3.36424112064995
C         3.30049940029501   -1.83647321102724    3.39557359993562
H         3.63324389829577   -0.84842191539539    3.11519695521717
C        -3.13197466802092    4.80009402299804    2.03209819065830
H        -3.60963681266589    5.71991785986763    1.73151680153290
C         1.59429514130446   -3.51649547512615    3.46137608327235
H         0.58918863313815   -3.84151212124895    3.23074778544963
C         4.76801023078152    0.02782577559964   -2.12719667298131
C         1.43296811796754   -0.62481737145469    5.76279652724558
H         0.81464385516172   -1.48789667785322    5.96584285620832
C         3.47531308087878    1.99563560098405   -1.57731091480362
H         3.22005733292695    3.03199600884302   -1.73363097921162
C         4.43615899199162    1.38557540893084   -2.32569160013078
H         4.96985365442175    1.92350879532772   -3.09404207387291
C         6.12367361531567   -1.80350966451745   -2.80715812004522
H         6.90091471284057   -1.97618559085724   -3.55005709714773
H         5.28238348108760   -2.47795812355237   -3.00097186387566
H         6.52660170617964   -2.00670344734434   -1.80873496553939
C         3.74779994220043   -3.96264402313416    4.41558387110831
H         4.42417812689154   -4.62988114887948    4.92845468549831
C        -5.64613745553537    3.81107100355419    4.47141553786166
H        -6.53899940667671    4.39230122870787    4.69684996012965
H        -5.04698930380416    3.70162650741143    5.38218411819843
H        -5.94234181438328    2.81916142585909    4.11247014787898
C         3.16631436568919    0.88828353373044    6.43853443738696
H         3.89338818027632    1.21183160270034    7.16829271047128
C         4.16552379476908   -2.69427236846688    4.04953588107273
H         5.16902444142816   -2.36760562748751    4.27738636826320
C         2.36613904808253   -0.21121852205963    6.69651752488564
H         2.46735585346594   -0.74945850149416    7.62716123781709
C         2.46005363223578   -4.37307223997820    4.11829468769462
H         2.12774673214567   -5.36220388022630    4.39676638470148
C         3.02945954194157    1.57399097190587    5.24299176222073
H         3.64956784188476    2.43343735707610    5.03672547799171
H        -0.46699542783646   -1.04003217149106    4.03093459927811
H         0.23974895276701   -1.89804463897162    1.93861814256117

