87
CSD_code = QIYVOL | q = 0 | S = 0 | Stoichiometry = C43H34ClCuN2O2P2S2 | MND = 4
Cu       11.02796976327901   11.30074500874323    4.13725524880309
P        11.90075185510272    9.30177825966902    4.75000542900024
P        12.26402039795940   13.12795890642180    4.39852427327165
Cl        8.80535261633421   11.25000730984011    3.81039380171389
N         9.69637005232679    9.65975383859235    1.53364041195743
H         9.26245688562790   10.32577494518488    2.23766781098939
N         7.67589931527815    4.78050010890647   -0.10207896129629
O         6.52643249602027    4.49625042905406    0.16813043431833
O         8.44380400680860    4.04785726338195   -0.69328000291555
S        11.50504693679856    8.35440089899573    0.25453301701775
S        11.93812289745047   11.08232963373920    1.47190280833487
C        10.97930541650392    9.78777461892993    1.16000407609671
C         9.08633151342223    8.50116050085689    1.17921739857248
C         9.92579933345937    7.63665885691725    0.44965020960041
C         9.47812397221507    6.41062211581405    0.01316873811637
H        10.10641193057746    5.73052594749266   -0.53908786423599
C         8.16418836105713    6.06259858226994    0.31556749746161
C         7.31759150603399    6.91557178558903    1.02864466765093
H         6.30862831400082    6.58995194876164    1.22929895194552
C         7.77220271893389    8.13810433847465    1.46650308052059
H         7.14779119094324    8.81255972835261    2.02903671476083
C        11.17002916984232    7.75989638393810    4.11510908780166
C        11.88173442959232    6.79041555367173    3.41808228923237
H        12.94201944052998    6.91314912649873    3.24788238831612
C        11.22818614036946    5.66259616821991    2.95231508323293
H        11.78303563850374    4.90714480186766    2.41592160617636
C         9.87201658376768    5.49562217408833    3.17802397996319
H         9.37365419001326    4.60362830226306    2.82903193288578
C         9.15460457771404    6.47357543186089    3.84990683063931
H         8.09534883638127    6.34924128515369    4.01773780720537
C         9.79637700250087    7.60905767719617    4.30430777000099
H         9.24317194687421    8.38923728258168    4.81124346376835
C        13.69169029901933    8.98070106541192    4.64650188961727
C        14.30661972558322    9.19489971582493    3.41499310504801
H        13.72046401932436    9.55381126412169    2.58014052959277
C        15.65917862544850    8.95909188451131    3.26271429441430
H        16.12624883360022    9.11914382206476    2.30252569496397
C        16.41125994063299    8.52319136150257    4.34139303555397
H        17.46872609271512    8.33792211966390    4.22397373109602
C        15.80795611988119    8.33211273272959    5.57311893685688
H        16.39521418246819    7.99971807207234    6.41700624040860
C        14.45262695673189    8.55944700555000    5.73092321887125
H        13.98753496884616    8.40725759472463    6.69459509799604
C        11.57815530589409    9.17402615911971    6.53723898599817
C        11.33120218048188    7.97582202301722    7.19949193379345
H        11.32079241673937    7.04586327653842    6.64817579166020
C        11.09589997684639    7.98114672795119    8.56268258221564
H        10.90218991394034    7.05024626177757    9.07526350164582
C        11.10657710267064    9.17219954069554    9.27141643360658
H        10.91839412113566    9.16804577607118   10.33472589478671
C        11.35198167607049   10.36822812418314    8.61602420400249
H        11.35521907004602   11.30011371456441    9.16264001324660
C        11.58339630158646   10.36737570310517    7.25371134722257
H        11.76171873328492   11.29827001709794    6.72530314093875
C        14.03430879650517   12.74927812557320    4.30515592004835
C        14.68052072897239   12.22903828952597    5.42500138395933
H        14.14597062237447   12.14145628836385    6.36231407903366
C        16.00223240208521   11.83648404736476    5.34199606114408
H        16.50304754179934   11.44652615449210    6.21603863426986
C        16.68104758424947   11.93656258825327    4.13830174350785
H        17.71548226960071   11.63280310637728    4.07678634817911
C        16.03003837408872   12.41465363515077    3.01302372323759
H        16.55335468366610   12.47525861886039    2.07015941030954
C        14.70850578720960   12.81323448247690    3.08956306484139
H        14.19165602369569   13.16999380179198    2.20985170061484
C        12.08695699454049   14.06102038611002    5.95511222692355
C        10.82949333727189   14.02202156838602    6.55160115724855
H        10.04558232582720   13.43288673118819    6.09105090166074
C        10.58893729206488   14.72421228563583    7.71775100439201
H         9.61226369042726   14.68994830577006    8.17745412485733
C        11.60541966857281   15.46795313797390    8.29476123348251
H        11.42258880798451   16.01530161666867    9.20765004155356
C        12.85795859472245   15.51052520998179    7.70291373102202
H        13.64829091229270   16.09252104411420    8.15443791665549
C        13.10326673187296   14.81204262270719    6.53480091053738
H        14.08358564052823   14.84120706719755    6.08039396813996
C        12.01902578157073   14.45898273195972    3.18311763796982
C        10.87213639777637   14.40345246955711    2.39924328923092
H        10.19050549032202   13.57042187643796    2.51409633774598
C        10.61719476253741   15.40269868736954    1.47726451116597
H         9.72919880515130   15.35675858528589    0.86451378278395
C        11.50334894972406   16.45780327624214    1.34070144260222
H        11.30768402608236   17.23728780767732    0.61902536729791
C        12.64357580996785   16.51815825851032    2.12786519653575
H        13.33130187031190   17.34442340756101    2.01961516429286
C        12.90458652000899   15.52422631538175    3.05151879175196
H        13.79470677673071   15.56757429310752    3.66369960872055

