19
CSD_code = QIYWAW | q = 0 | S = 0 | Stoichiometry = C5H8Cl2N2PdS | MND = 4
Pd        0.55478471276303    4.18200808009198    5.33803953498320
S         1.03082148733122    6.08785431574181    3.98767832055392
Cl       -0.06194101602228    2.41689390831487    6.53048741279723
Cl        2.01624524664688    2.95018424597372    4.22601129080616
N        -0.87629120808217    5.39689603924101    6.19409332716035
N        -1.08169824285651    6.60723463763105    5.65536666118779
C        -2.25973740736194    7.11823771889192    6.07649001533466
C        -2.83222042461817    6.18632394670473    6.90837266379326
C        -1.92635310729278    5.12023880541679    6.94759930718498
C        -0.08628230711296    7.26447380418749    4.85516693653181
C        -0.08574465202367    5.45997704838937    2.69223393889888
H        -2.59876181588022    8.08448279785895    5.76241583768869
H        -3.77180359419544    6.25750584257399    7.41441602560425
H        -1.98274557166498    4.18283025810231    7.46855908371282
H         0.58090911933848    7.86658701748307    5.48332391578590
H        -0.57162247190571    7.90531092708371    4.11538618876628
H         0.47750052817101    4.67962971936053    2.18073503725268
H        -0.32762414944428    6.26290759482846    2.00001625046061
H        -0.99023512579033    5.02752329212514    3.13080825149613

