27
CSD_code = QIYWIF | q = 0 | S = 0 | Stoichiometry = C10H10BrN2O3Re | MND = 6
Br        1.73971226539570    8.96250942291984   -1.38314346850741
C         2.33869372831049   11.08255152896626    0.97458083226536
C         4.59095403980558   10.36396556572770   -0.41658812638306
C         4.31827411242942    9.48063379102773    2.20980677821778
C         4.74117592982628    7.27078186628421   -1.08041343658381
H         4.87552217124083    8.18763762623893   -1.64014894461996
C         5.22294987174195    6.08234930168566   -1.59273412619741
H         5.73730412846029    6.07642904838355   -2.53958807631764
C         5.02267600224710    4.91839213621356   -0.86920298602667
H         5.37897468177994    3.96642537809929   -1.23150348144593
C         4.34129070333904    5.00846982513595    0.32991841279771
H         4.15146240350026    4.12616511885687    0.92157756434235
C         3.88864389116010    6.24320687743856    0.78236709116343
C         3.09654596086943    6.31552540101267    2.05761076417912
H         3.55131330727082    7.03638994698217    2.74387708086582
H         3.10108350608004    5.33737992672142    2.53833918098215
C         1.64807027008014    6.74414998443355    1.76790606225660
H         1.34461158032771    6.35456864037227    0.79079428028303
H         0.98026679536148    6.31518811579605    2.52513647692089
N         4.09247145799746    7.36457542785594    0.08237367249078
N         1.53786783057624    8.20563123426939    1.73990083396990
H         1.45887294936394    8.55814255671663    2.69549819110485
H         0.67559598371382    8.46456696782500    1.25335114367210
O         1.76351072345561   12.05627031640228    1.15481570685457
O         5.35709705580729   10.93816855331002   -1.04849427210897
O         4.95528025951829    9.54105171955119    3.16531007047157
Re        3.24407839034064    9.39807372177378    0.60105277535282

