115
CSD_code = QIYYED | q = 0 | S = 0 | Stoichiometry = C64H44N6Zn | MND = 4
Zn        4.96443028031886   11.10466302626918    1.35830835277451
N         5.82883407026734   12.64346993421209    2.17263475535062
N         8.01656428873664   12.07071653301150    1.36255303180503
N         6.55938407925616   10.34371140619822    0.54649962913342
C         7.78639944251397   10.89219833178345    0.84314348974963
C         7.14896172999497   12.90150725917941    1.88082486848332
C         5.69044168829371    8.26047334087512   -0.36763022797536
C         5.82506944061363    6.87662690617329   -0.24128458908432
H         6.76875719928203    6.46470265489673    0.08335362574849
C         8.16822152307489    8.87159490869990   -0.05923191210079
H         8.60545356300826    7.97151582412612   -0.44540805613765
C         8.82725812657237    9.97416694897226    0.44435434322430
C         6.78264355355408    9.13702289271711    0.01322529862269
C         3.40006425808786    7.94016526307537   -1.05223629403669
H         2.45789743504079    8.35559968328305   -1.37814690866690
C         4.46959743005941    8.77788864036960   -0.80418576894339
H         4.36869953667849    9.84154921319953   -0.96878335937004
C         3.91798461342000   13.84317677263567    3.08902508713008
C         8.75564277439917   14.90477331256814    2.15328834357219
C         6.29614313570255   14.77096894998709    2.78684019698548
H         6.13442765533206   15.75718470707722    3.17627599121699
C         9.07214537508308   16.00421430811620    2.95671345974264
H         8.35821041528916   16.35150537667991    3.68850313665198
C         7.47121333192754   14.24975311790854    2.28545107305388
C         5.31588944524339   13.75699028578416    2.70844559027878
C         9.70418854460692   14.46145521283010    1.22831172003111
H         9.46752290027031   13.61959417828000    0.59848993420990
C        10.25390684759219   10.17500303816606    0.58842222877358
C        10.93033637480746   15.08859248182929    1.12399743869397
H        11.65502970443393   14.72759473003782    0.40829971719830
C        10.29649940861000   16.63185741819489    2.84273824587032
H        10.52701284230469   17.47820765849040    3.47398283853363
C        11.23214535243392   16.17655286856419    1.92703010658593
H        12.19021137510140   16.66815301188917    1.84103786101689
C         1.87215691422133   15.11219459722756    3.20961887527058
H         1.34610208738527   16.04822302987782    3.08870451112170
C         1.18077635048572   13.97725049557048    3.60191939496768
H         0.11608576966935   14.02218732800158    3.77591109941772
C         1.86315964789138   12.78431550815570    3.77682085415267
H         1.33350206428105   11.90192982511374    4.10441627501305
C         3.22973521738437   15.05115687912896    2.96238852453488
H         3.76294621325666   15.93166802710749    2.63678195839148
C         3.21971987790534   12.71661926552052    3.52715970818771
H         3.75105195699505   11.78970123644081    3.69185768575500
C        13.00974705163361   10.55075931495970    0.84461136137608
H        14.07572650513886   10.69568868350669    0.94284459918701
C        11.15132363795785    9.45958886943540   -0.20974139300000
H        10.77265331510150    8.76950550421244   -0.94885102131382
C        12.13083641524057   11.26573852084778    1.64208185350308
H        12.51049994682145   11.97310700828578    2.36537865649280
C        12.51318420144075    9.64638802891277   -0.08100999856451
H        13.19359235155165    9.08798886850621   -0.70803635760027
C        10.76776850477605   11.07775795108839    1.52268339070996
H        10.08494800917279   11.62920053212041    2.14801621915694
C         3.53106901210349    6.57202667794986   -0.87796128469798
H         2.68715412345684    5.92110124117720   -1.05107080246408
C         4.75109084128142    6.04369529562403   -0.48751151537547
H         4.86147735371349    4.97561058836411   -0.36692578445318
N         4.09992194992442    9.56587930443037    2.17254827930696
N         1.91222804856113   10.13882428219520    1.36251525912777
N         3.36954371773588   11.86570990249095    0.54643508010486
C         2.14248660928950   11.31733136156728    0.84310155817672
C         2.77976054105000    9.30796607394776    1.88077496762205
C         4.23866933316302   13.94888292445021   -0.36768570990951
C         4.10417880122715   15.33274006201702   -0.24130950124431
H         3.16054291837307   15.74474635154397    0.08337549275408
C         1.76084047370168   13.33798735509573   -0.05924699163807
H         1.32368565843191   14.23811351364155   -0.44539892016390
C         1.10170789018865   12.23546453778458    0.44434053204326
C         3.14639146343193   13.07242943876019    0.01317888669765
C         6.52904684131657   14.26898285854398   -1.05238169813611
H         7.47115875035694   13.85346287823870   -1.37833888915936
C         5.45944652374348   13.43135655136131   -0.80429549545354
H         5.56023475452960   12.36768916623169   -0.96891107608903
C         6.01066163308536    8.36598842971522    3.08891671570256
C         1.17287309800920    7.30488181388420    2.15332417559263
C         3.63240165540096    7.43843533192574    2.78679864415214
H         3.79402376905973    6.45221000777971    3.17625093374378
C         0.85625201350764    6.20553616153922    2.95683148688843
H         1.57016053395466    5.85820859400183    3.68862970042223
C         2.45738044511838    7.95975772410715    2.28542600644748
C         4.61275966241464    8.45231548749302    2.70836374670489
C         0.22436130493434    7.74825713811790    1.22833989458945
H         0.46111346103060    8.59005058447054    0.59845925577932
C        -0.32495971561940   12.03478015935865    0.58845104875314
C        -1.00186879389304    7.12126837149898    1.12409897347151
H        -1.72653591787899    7.48231080659067    0.40839658241428
C        -0.36818440885008    5.57804106711346    2.84293001453368
H        -0.59879024731273    4.73176487485325    3.47424008575170
C        -1.30379671061403    6.03340393436723    1.92721627657589
H        -2.26192606191868    5.54191709445511    1.84127845455606
C         8.05635317150761    7.09674855804884    3.20949756230599
H         8.58230186041550    6.16065729521996    3.08860050392802
C         8.74787324669863    8.23163211651540    3.60172656514656
H         9.81256426557585    8.18658311622379    3.77569307271389
C         8.06562770779995    9.42464898406833    3.77660587492060
H         8.59539256777747   10.30698440345279    4.10416613701790
C         6.69877389152952    7.15792764889660    2.96230461563236
H         6.16546011383295    6.27746412230589    2.63673765879421
C         6.70906497177508    9.49248276977708    3.52699353996106
H         6.17783930307019   10.41946323679904    3.69168866745400
C        -3.08083345265531   11.65933306239565    0.84473668179045
H        -4.14682566147228   11.51453496241589    0.94301948134855
C        -1.22232651074208   12.75032157944032   -0.20965616701370
H        -0.84360709920233   13.44038326379783   -0.94876089269310
C        -2.20197261705172   10.94422785385739    1.64214991675362
H        -2.58168854759800   10.23688825903680    2.36544789251595
C        -2.58420396906165   12.56367365620959   -0.08087820228763
H        -3.26457276080159   13.12218060852222   -0.70784915593268
C        -0.83888777065997   11.13205465707738    1.52270330272715
H        -0.15610408844204   10.58051523288632    2.14799017834867
C         6.39817948492647   15.63713149973536   -0.87808205188888
H         7.24215051374053   16.28797824181214   -1.05120796173113
C         5.17822567340753   16.16557320554498   -0.48756805804199
H         5.06795059938444   17.23366404916409   -0.36694298975904

