115
CSD_code = QIYYON | q = 0 | S = 0 | Stoichiometry = C64H44HgN6 | MND = 4
Hg        9.52992351756091   12.77546529028474    5.56907291401268
C         6.08164843675068   10.58597386871697   10.11073468507145
H         6.88523862473395   10.03480741786847    9.64920371932529
C         4.01305055114843   12.01013417238269   11.28152870836761
H         3.20915332112602   12.56783619780250   11.74051679020365
C         5.60096205926352   11.73794878992158    9.48617504035630
C         5.52962282787337   10.15428360885507   11.30125696157220
H         5.90645476310125    9.25634839928978   11.76936383852623
C         4.55605260150462   12.44262094935539   10.08779849550251
H         4.18680283501854   13.34360458146811    9.61994413974463
N         8.45082299644105   11.51260928156760    8.54213502294394
N         7.64177838664248   12.54954562704787    6.50677516091761
C         9.73915025180502   11.42415924845818    8.33083006263540
C         6.15186016442014   12.18495433904043    8.22249324859786
C         5.50282975709037   12.84405879491511    7.20105872367087
H         4.46397206898526   13.10875525377759    7.15502464764848
C         7.51857563214478   12.03170765907296    7.78400014436098
C         6.43842975592737   13.02521266127449    6.15725118479231
N        10.47328109166221   11.94909821234034    7.28255583257842
N        10.75880693314537   13.85739060888333    2.60348682355808
N        10.53192460418498   11.85428974605379    3.93524353107948
N         9.56948502551420   14.64386600211327    4.55639263358218
C         8.95532187722308   15.80414697795092    4.83134485612616
C        10.05968616499000   14.74145698692182    3.26773163402410
C         9.03248064113097   16.68726426404803    3.73097299052872
H         8.61752443477168   17.67612734401453    3.70151058102613
C        11.04448671828902   12.61696638231810    2.90321409815470
C         8.28505224302698   16.03265290357315    6.10093526641668
C         5.32189702312268   14.72321827423156    4.75432971825261
H         4.77499211499321   15.04875483928620    5.62640467173492
C         6.20807422499922   13.65058847412401    4.86506950645177
C        11.97274946639434   10.57579898933760    2.73730651400842
H        12.54119277747122    9.71286085657893    2.44892774595561
C        11.08972186701824   10.63844513820747    3.83904358397662
C         8.90534405992199    9.81109245733684   12.40020354763946
H         8.13549952185623   10.21595792184781   13.04113472729588
C        11.86057114727907   10.72206882712777    8.59217908108102
H        12.77531183631334   10.29558488912087    8.95653543115728
C         9.24301502592883   10.47468955274201   11.23642546264846
H         8.74306267049220   11.39040305721469   10.96422568077774
C        10.24230949009535    9.97194484453956   10.40205261620956
C        11.73817256161579   11.53506145582715    7.44187633933589
C        10.61994421216071   10.66703825555514    9.18808618643752
C         9.37628923538867    8.61132620485994    6.48610079359468
H         8.42050407737161    8.57384713983882    6.98815494012456
C         9.57866001560254    9.51787893969295    5.46336942946567
H         8.75664808334093   10.14748896442628    5.13520518428247
C        12.75473326809530   13.09835947235872    5.79931003864767
H        12.03029900504239   13.85967196227938    6.07431219009077
C        14.64725446964728   12.42542776731094    4.48893119613725
H        15.35180385819405   12.62312298151580    3.69495697120013
C        13.79811502123001   10.97296886140801    6.20130740322195
H        13.84046235874482   10.04035064402432    6.74352340539741
C        14.71730982595182   11.24178047293469    5.20592095044998
H        15.48937360474578   10.52046588024781    4.97946000705692
C        13.67559500429303   13.36136800796169    4.80342277280076
H        13.63445758232947   14.29917884206778    4.26896606414301
C        11.81549946083309    8.69276751759054    5.17511793608736
H        12.76808992753150    8.73084148465796    4.66853144388743
C        12.68826761246511   12.24106176177672    0.95146081292695
C         7.13548486178866   16.82314145428708    6.15305213695249
H         6.78300797722569   17.30427758060509    5.25329589899985
C        10.81449181751957    9.59708844168718    4.81571504040609
C         6.89435471934020   13.22900176499695    3.72308741840052
H         7.51478122471730   12.33779737501775    3.76375044388376
C        11.95209015234019   11.80905072751032    2.12134239351961
C         8.02187026697120   15.56074785920466    8.45456481551303
H         8.37507500345655   15.07505614629210    9.35254757434078
C         6.85775211686974   16.31119289376917    8.48189349674026
H         6.29402983269444   16.40170465183090    9.39852750047312
C        10.89022249393763    8.78931689974609   10.76488590693151
H        11.65476884095025    8.38549051185243   10.11723268678599
C        12.77966856015774   11.88329133886276    6.48919246074505
C         9.73874441098884   16.04557433438679    2.73557594192134
C        10.54282102530141    8.12622985156374   11.92528729977001
H        11.04617540401479    7.20778062656268   12.19200662607710
C         4.49594416124633   10.86308300396120   11.89170118077073
H         4.06613832991540   10.52385150275550   12.82300243039490
C         9.55066213720495    8.63559515230290   12.74843510828097
H         9.28382664253156    8.11746267731011   13.65811797992814
C         6.43016517382802   16.95735103818757    7.33307643876393
H         5.53482789767810   17.56203454632331    7.35614111935096
C        10.09503994636434   16.54329119603392    1.42280878084709
C        13.00061959236632   13.58737399396495    0.74863607945625
H        12.69594415106335   14.31312966973294    1.48490251623916
C        10.32751882719833   15.67276696772750    0.35539625654846
H        10.22439931166864   14.61119636544529    0.51152404966168
C         8.73585172443015   15.43106274932080    7.27898536469734
H         9.67826978437771   14.89027970957782    7.28377085132252
C        13.68677527341991   13.98629008691657   -0.38181487192727
H        13.91260560552976   15.03297870990117   -0.52711402521065
C         5.90269935655947   14.99599895938234    2.44107213873625
H         5.80246607710458   15.53104277354551    1.50850498409965
C        13.79259513272371   11.71273273711240   -1.12952013967779
H        14.10028777767536   10.98064762953917   -1.86254487289745
C        10.57503875941490   18.40249797718221   -0.04097057460010
H        10.67249059060563   19.46781829988211   -0.19448405367436
C        10.81379539537748   17.52753583023670   -1.08927209729394
H        11.09440903967837   17.90911808528512   -2.06020268812672
C         5.17520080756947   15.38907388082213    3.55297556026670
H         4.49613542333323   16.22679764768114    3.48394859652999
C         6.74957945545026   13.90303609891444    2.52572360999813
H         7.29885641524822   13.57513590406340    1.65527331828649
C        10.21958548046428   17.91793465225921    1.20195511525565
H        10.05796800003842   18.60416279044455    2.02005765401023
C        10.68930475519738   16.16313849687711   -0.88432147769580
H        10.87379140284493   15.47504255796318   -1.69675391287434
C        10.39600692835688    7.75535387544138    6.86907909515962
H        10.24184657463893    7.06074753901184    7.68136280341183
C        13.10151712894187   11.30896050330193   -0.00454414833888
H        12.85578236165047   10.26591117864395    0.12966977333664
C        11.60679839496210    7.78595617968838    6.19601997548184
H        12.39648399202194    7.10329384937198    6.47598368599850
C        14.08638846046974   13.05327366072794   -1.32471337380506
H        14.62474632675178   13.36709875757629   -2.20712996004219

