52
CSD_code = QIZBEH | q = 0 | S = 0 | Stoichiometry = C17H11F12MnN6O5 | MND = 6
Mn        3.89760362969518    2.81452102734696    8.16403705253752
N         5.21526100229599    3.42817269513860    7.05168182173852
N         5.22814667162139    4.25822018607194    5.95062377185313
N         7.36488741204121    3.53458500651289    5.34894401761590
N         7.49764574095414    2.93391090005422    6.54211338350503
N         7.53056955343028    1.70098141243356    9.29256740878745
H         8.45219900059843    1.52781123960034    8.92363752919781
N         5.43398045758421    2.36009905245186    9.39057269054707
O         6.20369458995063    4.98346931547596    4.03470738237048
O         3.57998486478424    4.45802156463190    9.00883581295729
O         2.60341125659387    1.98479999762366    9.29574505809342
O         2.43868392570048    3.10674752950235    6.93879203473375
O         4.17661491312565    1.00488826336793    7.45315300486794
C         6.25716329695962    4.30266447099935    5.02945743444987
C         6.46941127466060    2.90438194694056    7.32328762076239
C         6.52563709399723    2.30953494901595    8.63453610787266
C         5.74608672662886    1.75472892268330   10.56138769328351
H         5.03186671785034    1.65208800768481   11.35376191731685
C         7.05052461715148    1.34002961361158   10.51405443808501
H         7.64973018974076    0.83192042544599   11.24072066700140
C         4.11762457468192    5.16071566326117    5.73321946258308
H         3.43184926318776    4.76119771123110    4.98442287037754
H         4.51407398064623    6.10760666829223    5.36719969635528
H         3.59769462842763    5.30730475224955    6.67762529906461
C         8.50270467433656    3.48329022090419    4.46509617772714
H         9.39663909084244    3.80651599853160    4.99689480965430
H         8.30213214373196    4.14708526582501    3.62743147220600
H         8.64829877648599    2.46445995439147    4.10585215378432
C         2.67631300372958    4.76034411017457    9.83736397738563
C         1.74882345615434    3.88909591650826   10.41886442700129
H         1.02703739292001    4.25785678518180   11.12635086231811
C         1.78867334299725    2.53795394114591   10.08190036227208
C         2.66337732314784    6.22454002443315   10.29586295395205
C         0.80540122930772    1.58718412689963   10.77845116896004
C         1.90957567682214    2.25676279709264    6.18222033380308
C         2.33211893529260    0.94131199974978    5.94107184593151
H         1.78532056470795    0.31924255366056    5.25285837068386
C         3.43692080639270    0.42722889125911    6.60800367795920
C         0.70261685777091    2.77251330773490    5.38093358135317
C         3.84379263902760   -1.01171742344501    6.25149520202805
F         3.26292410768854    7.02400518411906    9.41010084257663
F         1.42782262247805    6.69690778970626   10.48799998942458
F         3.31575436136092    6.37998543354894   11.46243079963817
F        -0.30117917435587    2.19971517948428   11.21314341840842
F         1.37456234586665    1.01851814977126   11.85835440083387
F         0.42021306515668    0.59397467923066    9.97572705959221
F         1.11681105836406    3.43834770814743    4.28492085435290
F        -0.03613910742176    3.62604730568663    6.09103040320520
F        -0.10761671582358    1.80178251996908    4.95281331835749
F         2.84035555256711   -1.88356124556622    6.39134804699510
F         4.24690495766730   -1.09867098985159    4.96942102330717
F         4.85899563047312   -1.44472150589982    7.00097429033223

