66
CSD_code = QIZNES | q = 1 | S = 0 | Stoichiometry = C30H31O3PRh(1+) | MND = 8
Rh       -1.55207456925587    1.03927328146156    8.36818630332095
P         0.27349534743146    1.36412118889135    6.98059126887693
O        -2.59451726038230    1.85064372155391    6.73225020707437
O         1.51045721689226    2.28138006995238    4.56392894470847
O        -1.09038455586109    3.92891021748787    9.04525717137614
C        -2.12446392420290   -1.05936636751892    8.20650289844019
C        -3.27023821024728   -0.36561077663887    8.73900667166534
C        -2.88841068434862    0.24853402602243    9.96541012147372
C        -1.51437610730516   -0.12324664897681   10.23859596423439
C        -1.07080790988044   -0.98539594114818    9.18212395498737
C        -2.19416609645341   -2.03422821903931    7.07041599984346
C        -4.61469495784712   -0.33083600162115    8.10016485294299
C        -3.80974874126807    0.93827454745701   10.92012000595206
C        -0.80674994313829    0.09724049489894   11.53735299975078
C         0.16807917189756   -1.81748219862029    9.18929409911031
C        -0.54036338780942    2.17569558223344    5.61198763493349
C        -1.93465863724127    2.31075660055154    5.70721854866002
C        -2.58979060580213    2.92827002769343    4.62624142015131
C        -1.86537309929564    3.33273939158556    3.52783210703676
C        -0.48772993797362    3.15418428640474    3.42558578960604
C         0.18467552250041    2.55773989869196    4.47660704825405
C         2.34257900658691    2.60599338998151    3.47025633742556
C         1.51275201873660    2.44193461521296    7.74613316280938
C         1.78307228426925    3.71974099594107    7.27230467140022
C         2.71052837536986    4.51135306670175    7.92786940696613
C         3.35840665576527    4.03969731513881    9.05761907755663
C         3.06868373178733    2.77590870955714    9.55038418062637
C         2.14200082586724    1.98190791914164    8.90299369063443
C         1.15594744559737   -0.04690008120594    6.26034975627127
C         0.46036061477083   -0.78722286769370    5.30445314963360
C         1.07187595438692   -1.85755518276047    4.68017978798419
C         2.37574774644044   -2.19764157649476    5.00949804195607
C         3.06862000827332   -1.45976411626441    5.95605748920096
C         2.46460819937409   -0.38537124718685    6.58632773732329
C        -1.25716360714538    2.81883681509516    8.87708448219575
H        -2.76272455429850   -1.62496822852529    6.23816116745444
H        -1.20194030645088   -2.30752766119312    6.72030814245888
H        -2.69685832569344   -2.94117322922069    7.41208379952410
H        -5.37241913488660    0.00213479152005    8.80383626808971
H        -4.60992021556143    0.35307100696376    7.24858747912553
H        -4.87732603702042   -1.32193381193687    7.73353059584960
H        -3.26711284586658    1.59714343401002   11.59317211161630
H        -4.55866555687936    1.52399926723155   10.39265383306418
H        -4.32372107530435    0.18757025702598   11.52330286925492
H        -1.06040832211279   -0.71537930166048   12.22029739024113
H         0.27305398283067    0.10675747483274   11.41100498122966
H        -1.10708008153181    1.03327261854009   12.00197038636907
H        -0.08543210695518   -2.80703037829360    9.57404322076224
H         0.58084116342874   -1.94265027480277    8.19018785160905
H         0.93316684721203   -1.39416194609421    9.83495203905995
H        -3.65844012869746    3.05856858283089    4.67133659387109
H        -2.38614203784747    3.80092980746982    2.70650664993970
H         0.02933995126672    3.47798149868333    2.53800649526060
H         2.34512799850758    3.68258430872905    3.27943746938295
H         3.34289569109216    2.28594229760603    3.75496778795835
H         2.03286198668743    2.07424897335506    2.56675566214672
H         1.26756493282541    4.09171319019941    6.40005362736676
H         2.92455539416371    5.50214797151787    7.55745620860201
H         4.08101767076647    4.66082298348060    9.56367972436602
H         3.56121835295825    2.41677114248014   10.44143893484080
H         1.88831974165455    1.00229075511197    9.29024933181535
H        -0.54993881412596   -0.49897207245236    5.04388555818820
H         0.53608723573776   -2.42446812176028    3.93383774610479
H         2.85412169956178   -3.03250383181047    4.52122877225295
H         4.08748455569312   -1.71829988874506    6.20113170074105
H         3.01509444813760    0.19810344824025    7.30865061618263

