93
CSD_code = QIZNIW | q = 0 | S = 0 | Stoichiometry = C50H40O2Ti | MND = 4
Ti        6.41110334712262    2.57538641788535    4.28802594981180
O         7.08791231835141    2.28060518787925    2.74720049412695
O         6.53123108784759    2.01248615476676    5.89253687529392
C         7.55395151104314    1.55225446181784    1.75384734665100
C         7.17865919218823    0.19739472288129    1.60673251073858
C         7.70701991694295   -0.55784922658021    0.56916871400890
C         8.61465391541488   -0.01086295668940   -0.31935248398152
C         8.95832924239282    1.32412453605539   -0.20666807848549
C         8.42384213783638    2.11897745759901    0.79771986460923
C         6.91249350201572    1.32162302051346    6.94694335005561
C         6.02244169972626    1.13310516572134    8.02767164322086
C         6.42438861772907    0.39112050005592    9.13009929562797
C         7.68322806538843   -0.17996262964466    9.18475279643383
C         8.54090007336213   -0.04985143176967    8.10739448789682
C         8.17666551665580    0.68488910876083    6.98716738037948
C         4.34273125892504    2.45870056485422    3.92826677460195
C         4.15096774694824    3.20871926719987    2.68078456019885
C         4.26912325199682    2.58598328991448    1.42971019118615
C         4.14644016388212    3.30351156435378    0.25605154170145
C         3.88176415528513    4.66453483948786    0.28828657131310
C         3.72451534343799    5.29336286364561    1.51308648895354
C         3.85033965915339    4.57847352958240    2.68885773912078
C         6.56165848595671    4.66288800715135    4.54954586095123
C         7.84064982922522    4.99732372921112    5.17958935974940
C         8.97948692653708    5.26589109241011    4.40531363772420
C        10.19793107514020    5.54178653293619    4.99353194289409
C        10.32315292397199    5.56579469865324    6.37410983140953
C         9.20703767633727    5.32288444317051    7.15944771093772
C         7.98552998503470    5.05108265376363    6.57434654906537
C         6.17832210410212   -0.38589664789497    2.52096527280705
C         6.36852200469822   -0.34629891198511    3.90290439359006
C         5.41293908857305   -0.87416490607317    4.76046791947650
C         4.25365150275928   -1.43375479532347    4.24744848031090
C         4.06676604332772   -1.49472647847358    2.87513772209978
C         5.02160254048957   -0.97908968234898    2.01710162371406
C         8.72153466204942    3.56096498316628    0.83949239837649
C         7.68023248977554    4.48192717912232    0.94358754948444
C         7.94409876722364    5.84005677390284    0.91942978710624
C         9.24722833557566    6.29747359146073    0.80411333602841
C        10.28807189265199    5.38804520405534    0.71108282191474
C        10.02784067034061    4.02958062500448    0.72356125861690
C         4.65472136974242    1.67406949928352    7.93779570707729
C         3.56441338181148    0.85815357408663    8.23242877916656
C         2.27392117099829    1.34234261671110    8.12715486905113
C         2.05057189225826    2.64944998506954    7.72770723644170
C         3.12729407417326    3.47078305769168    7.43819670676750
C         4.42013263203628    2.98798985676045    7.53958776499075
C         9.03805011449534    0.73358983195873    5.79181238563375
C         9.56960990456009   -0.44291103902489    5.25975132878796
C        10.26823323971592   -0.41981536071329    4.06633627858973
C        10.45079481763058    0.77390413971082    3.38567797562849
C         9.96867832943347    1.95525851960649    3.92652904301842
C         9.26638673749352    1.93844444534304    5.12290178713845
H         7.40890279539008   -1.59241509092670    0.47444609865847
H         9.03396339637636   -0.61563493623375   -1.10899341043532
H         9.62982258143202    1.77261049104768   -0.92484950011815
H         5.74028704155346    0.27452666768360    9.95827983266888
H         7.98800789287996   -0.73893523274927   10.05630247077158
H         9.51682593794098   -0.51292669720028    8.13224014002755
H         4.45843532590475    1.52043269169965    1.38877993216300
H         4.25423663804802    2.79891093792381   -0.69418162215276
H         3.78866990315065    5.22436523617399   -0.63031832703082
H         3.49460409338740    6.34930681406691    1.54961689251846
H         3.70056022198015    5.08016746980111    3.63790020810834
H         8.89011616863444    5.25851414660426    3.32735284093926
H        11.05756080610918    5.74659289100795    4.37062035571371
H        11.27614320300440    5.78156605988829    6.83325160714520
H         9.28952406535729    5.35262030959140    8.23691594032130
H         7.12210017873958    4.87737447407213    7.20587488955854
H         7.32065926233118    0.00117283562805    4.28837875694765
H         5.58373680649113   -0.86557076417848    5.82935450959901
H         3.50440485235407   -1.83475483581063    4.91378603821657
H         3.17184655656809   -1.94618866402930    2.47224627089755
H         4.87315599723858   -1.02988747430250    0.94734823660795
H         6.65992158084136    4.12958402378769    1.01746143167067
H         7.12681932419157    6.54350562283566    0.98952184034170
H         9.45140928328565    7.35789889543044    0.78998007215789
H        11.30633889818776    5.73955768879512    0.62563907078233
H        10.84260209888167    3.32275950875929    0.65123180401731
H         3.73396520657221   -0.16612206601077    8.53315790209290
H         1.43773843810590    0.69735792824994    8.35564562006368
H         1.04198438125570    3.02646247018420    7.64393997172632
H         2.95837630097650    4.49526430183234    7.13678465330068
H         5.25853069076028    3.63917824257343    7.33199369756010
H         9.40493376975267   -1.37970474620096    5.77333860872358
H        10.66257097642227   -1.33907498595586    3.65868379994132
H        10.97821459027065    0.78206904846037    2.44350746414025
H        10.15128678242950    2.89863350072111    3.43007393665708
H         8.97115680380637    2.86854489794861    5.59378209698401
H         4.04321024625262    1.40952073852011    3.81656366679438
H         3.78830716760766    2.91089719216534    4.76116520482420
H         6.47933020335813    5.12154028372650    3.55598613777113
H         5.71817314039856    4.97822649773126    5.17904952730040

