120
CSD_code = QIZPEU | q = 0 | S = 0 | Stoichiometry = C53H48BF15O2Zr | MND = 9
Zr       -5.43022058303777    4.09850661856803   -1.67795933674556
F        -9.29791672714747    3.58320440338219   -5.33383091317543
F        -9.46156867001772    5.16958696798371   -7.44472865624418
F       -10.91527745932657    7.50216004105235   -7.33364280364892
F       -12.19316083514236    8.14796513880742   -4.99914772358087
F       -12.02680728766510    6.58953607648765   -2.88081049720508
F       -12.15474086068413    2.77340144275812   -0.53144407363351
F       -12.68418354764936    3.87960859389023    1.83050924662819
F       -11.66555837860924    6.33767222277685    2.48171003853846
F       -10.10096218448728    7.65625062255689    0.65175176527471
F        -9.65391043674677    6.61248898460329   -1.74820934875858
F        -9.89789373178057    0.97654598974505   -3.11684723176579
F       -11.65151300902290   -0.83725388048867   -3.85688848079960
F       -14.27800547227878   -0.17925341782993   -4.28870928534181
F       -15.06420171156289    2.42599965261104   -3.93832913371491
F       -13.30221225314646    4.27561297937857   -3.18845080054226
O        -4.41046999492544    4.44702194838137   -0.12544367964444
O        -4.20936016830163    3.93725770145808   -3.06754857944637
C        -6.54844069579353    6.76082169822137   -1.31248111527393
C        -6.68695569123713    6.42095936657854   -2.66069938128679
C        -7.39004266669107    5.27846021826693   -3.02693777148413
C        -7.98860327333487    4.44948185994623   -2.05350415592642
C        -7.75162118127190    4.75911746373962   -0.69470518793146
C        -7.06655251145753    5.91634346154375   -0.33161342643191
C        -8.94199867343209    3.39256578483103   -2.43391970679105
C        -4.81131033417762    3.98545254442467    1.07598311330006
C        -5.36187067342821    2.68160995297387    1.18791038609585
C        -5.98842057044583    2.33688456611490    2.37823307242076
C        -6.01957401501954    3.20895466227027    3.45042838563968
C        -5.30543384163391    4.38962746653244    3.39288856675430
C        -4.65790084203544    4.78860656698427    2.23142798357434
C        -5.14992663901788    1.65117506287049    0.06995024581742
C        -5.96107109517122    2.02589149539571   -1.18248254563579
C        -5.54625046148863    0.23302054675589    0.51900786364914
C        -3.64560935032280    1.60347557888684   -0.27897294132607
C        -3.72864841573755    6.00185251609554    2.22442574682535
C        -4.27983425610430    7.11965949116251    1.33248214595488
C        -2.36042700011003    5.55044228421873    1.68971892973625
C        -3.51199514339167    6.58236833534161    3.62587499369539
C        -3.76005509003729    4.28535977423659   -4.28643742464556
C        -2.87853149111920    5.38373146000568   -4.42532976113342
C        -2.54876726336657    5.80458605759344   -5.70549063878870
C        -3.02137619955864    5.14445757134384   -6.82232598261089
C        -3.77008113845796    3.99345375251724   -6.67449549567151
C        -4.13269404948226    3.52494433597756   -5.42109875764124
C        -2.25456110010721    6.04278394765709   -3.19552874813010
C        -3.33616959814231    6.74096323321226   -2.35774716805434
C        -1.56347047565733    4.96684541983354   -2.34208168364231
C        -1.19821429443675    7.09239591621325   -3.56167159096484
C        -4.85581594822477    2.18982481596991   -5.25818369404436
C        -4.02664378515811    1.29399511458539   -4.32308959769324
C        -5.02802250354520    1.43972722450461   -6.58370625197420
C        -6.25662933365750    2.41967339452797   -4.67435986026778
C       -10.60191650231860    5.01924823579698   -3.96455354335966
C       -10.01376705681421    4.71951798809341   -5.19000388910881
C       -10.09660047866095    5.52643890473985   -6.31780732060686
C       -10.82920833181321    6.70322060901830   -6.26598161652057
C       -11.46942308769486    7.02674104558748   -5.07782841492106
C       -11.35564624225766    6.19332788786994   -3.96770899409444
C       -10.92226262084503    4.65622739860870   -1.28098372080671
C       -11.67565916140393    4.00897186666712   -0.30678331723909
C       -11.95085670327817    4.55935833730569    0.94172104812338
C       -11.43768310485575    5.80525329295058    1.27694094446586
C       -10.65795852914960    6.47462561224544    0.34382497566688
C       -10.42324126398241    5.89915574557112   -0.89691435531434
C       -11.50584705287838    2.74047916164377   -3.11922465289457
C       -11.15899462224808    1.40714249320932   -3.30833060449911
C       -12.06789365724332    0.42609111075491   -3.69551105177487
C       -13.39715741661725    0.75283859668777   -3.91395890478335
C       -13.78999210992456    2.07276323470483   -3.73487095006496
C       -12.85232337974780    3.02224657443703   -3.34970669153918
B       -10.50535575625237    3.97327790892452   -2.70262952994686
H        -6.10747256571487    7.70960887556832   -1.03559586323597
H        -6.33384577757779    7.09921029359194   -3.42997410012098
H        -7.59714439476573    5.09635024469201   -4.07484445740191
H        -8.22813442548710    4.15869133373810    0.07606041560146
H        -7.00702411808608    6.19504308981233    0.71376431375665
H        -6.45716041756087    1.37378586799431    2.48795695547162
H        -6.54528701771040    2.93815168057300    4.35275103742833
H        -5.25793983634287    5.00251007102403    4.27638951243936
H        -7.02977209311990    1.93540889695671   -0.92053157864668
H        -5.75728966857799    1.26021215265565   -1.94692204786985
H        -5.00569110977350   -0.06536584881177    1.41418273932026
H        -5.30186703218330   -0.47075201342579   -0.27426549481536
H        -6.61498842870279    0.15938216477431    0.70632706743433
H        -3.05943253195171    1.41736956258592    0.61996600641844
H        -3.31361727889743    2.54696453485717   -0.72927072554564
H        -3.45564318395105    0.79563400649160   -0.98549089149824
H        -4.39257368645766    6.75511039567032    0.31506516837667
H        -3.59155879939632    7.96292653418370    1.32876393556843
H        -5.24011764958336    7.46902129471285    1.70767247954436
H        -1.94873152764667    4.77267606110199    2.32903706730115
H        -1.66756788174241    6.38940980564890    1.67732520528471
H        -2.45167455256224    5.15609017992452    0.68068120154902
H        -4.42940253044968    7.00320222395400    4.03032331422825
H        -2.77743728521827    7.38307109182481    3.56896651360304
H        -3.13281204148119    5.82699385030209    4.30920063551722
H        -1.90794086665664    6.65735044200550   -5.84950997318066
H        -2.76947915792061    5.50276351815722   -7.80833557321769
H        -4.06762740134385    3.45841939034937   -7.55954330575061
H        -2.86587344213221    7.28026360487110   -1.53610138063409
H        -4.02539487929011    5.98828883661134   -1.94320809656456
H        -3.88046861683683    7.45749253096875   -2.97355476791549
H        -1.04866712673987    5.43023359805082   -1.50272209299267
H        -0.83111116941867    4.43015038641293   -2.94122283533660
H        -2.28942107378765    4.24888871463155   -1.95178381457594
H        -1.63729439287761    7.92943242303671   -4.09883996959529
H        -0.40696800464317    6.65600869585485   -4.16494310114434
H        -0.74840619807977    7.48047919210867   -2.65015874751252
H        -3.87174012515968    1.77110014404280   -3.35362860826866
H        -3.05463609059148    1.09797570357903   -4.77100168144336
H        -4.53284974980886    0.34207182486419   -4.17524342410828
H        -5.50144293007445    0.48033240719578   -6.38812031713430
H        -4.06841958389084    1.25065187594991   -7.05750126384481
H        -5.66596348191517    1.98884363938200   -7.27110475175497
H        -6.18326178018351    2.93975064402289   -3.70790899805629
H        -6.76155360067075    1.46593918717780   -4.52770729299517
H        -6.84813175722767    3.00913436793265   -5.37189102569613
H        -8.61541454730727    2.88342385191669   -3.33393433321018
H        -9.03877819653125    2.66174763815829   -1.63231151786789

