34
CSD_code = QIZQOF | q = 0 | S = 0 | Stoichiometry = C15H12Cl2N4Zn | MND = 4
Zn        2.27594211999156    0.79115485545824   10.48637403447705
Cl        4.35974830199623    1.21359453527877   10.02347772427999
N         2.14242697081844   -0.41886878942602   12.17569641714876
C         3.11263247792857   -1.28012126438429   12.47538095517588
Cl        0.52305194505577    0.37902815920606    9.18607142991673
N         1.38033089875623    2.21346280618774   11.73808135931499
C         2.98356587824394   -2.24535325608992   13.45095900207206
N         0.00670626493544    0.48611006239700   12.57469169799929
C         1.78316396187113   -2.31168472422834   14.14933761529164
N        -1.87217801802614   -0.36656654032933   13.73140497383669
C         0.78620882224195   -1.40362789501858   13.86412409526156
C         0.99921544732998   -0.44850177300772   12.86239772133285
C         1.59993613680471    3.51161594121876   11.53460695601431
C         0.67008304949660    4.48790060380302   11.81832866705026
C        -0.55421146655938    4.08899226968003   12.34492781013788
C        -0.77923251100189    2.75219953071034   12.58409714607531
C         0.22203413678651    1.81951532340521   12.26975776653568
C        -1.35599763329347    0.05501306957564   12.58940289374306
C        -2.06963802599888    0.10209273131604   11.39507161916973
C        -3.38921271463549   -0.31511378152118   11.41733125331620
C        -3.93974904988263   -0.75483296336543   12.61347352849479
C        -3.13417770732314   -0.76672803859130   13.73913398061492
H         4.01981872655409   -1.17124880813358   11.89764179348257
H         3.79283474297951   -2.92594970060873   13.65749055497791
H         1.63486914278892   -3.05281501299788   14.92019289793618
H        -0.14847718925158   -1.40286663219383   14.40094895767140
H         2.57035108430339    3.75317467452472   11.12297347292029
H         0.88818017965595    5.52555819984068   11.62853815438461
H        -1.31627051449652    4.81683361081390   12.57912975396069
H        -1.70530788287653    2.41925530550438   13.02409342693344
H        -1.58103130748827    0.42283663716899   10.48728730149868
H        -3.97510106474181   -0.30460803515705   10.51082287212242
H        -4.96406814226684   -1.08701749326736   12.66903841034330
H        -3.50294706069527   -1.10613360776782   14.69781375650990

