86
CSD_code = QIZRUN | q = 0 | S = 0 | Stoichiometry = C24H50N5ScSi6 | MND = 5
Sc        9.31100821491709    3.19111252467199    3.08810500430372
Si        8.93874573817395    3.52301371752381    6.34597568191294
H         8.98577699827263    4.98007943570476    6.71575206065650
N         8.11946276933874    3.27533897801194    4.85802755968409
C         8.21432069961062    2.69168320565317    7.90641908798591
H         7.21721519146723    3.06492937118989    8.11333099256555
H         8.82793731634091    2.89572791861264    8.77855049888263
H         8.14452954564309    1.61389517829326    7.80010280687429
Si        6.41196345274191    3.07274237761394    4.76823986422399
H         6.04172064957819    3.09553217858979    3.31715809342564
N         9.08306023423448    1.16117256998187    2.55847543276185
C        10.73496982358056    2.91264676740326    6.12017408216398
H        10.99194144309398    2.92612012776934    5.05123581403700
H        10.87822146811776    1.90253172935005    6.49112262880886
H        11.43621329407359    3.55612407454846    6.64055481576892
Si        7.79036504227390    0.66713546583866    1.53870351384864
H         7.12068766493580    1.92228977379919    1.03007342137004
N        11.24715596504696    4.05639190300324    2.90719376909029
C         5.44004949399034    4.50382321583646    5.60142375234036
H         4.44176956668536    4.18604441149062    5.88399139251478
H         5.33004298775108    5.35960652671056    4.94232717532813
H         5.94320154547816    4.84254214388382    6.50168504809642
Si        9.96768707341742    0.02286275207617    3.50793915760510
H        11.32168694674346    0.60945787231252    3.78510183845001
N         9.25089979715653    3.77118359565159    0.69226552613869
C         5.71777181383226    1.48734347038172    5.57022826549021
H         4.69832842022793    1.30197824519793    5.24379799935979
H         5.70399295722585    1.56202787607396    6.65298205896186
H         6.31383770984820    0.62124852308681    5.30739437244045
Si       11.55100089869351    5.61673676512688    3.55541154568690
H        10.45296281421908    5.93567277137077    4.52497931397632
N         8.28492757307631    5.38454005823686    2.62019601603483
C         6.41917456242237   -0.41604759786225    2.30222320601559
H         5.87336309284661    0.13360252438305    3.06010288636754
H         6.83008445917678   -1.30613853077302    2.76855160588504
H         5.70613200637618   -0.73893488501888    1.54934470646098
Si       12.48327461202405    3.19994000647270    2.06867744974558
H        11.86082486530034    2.00157602115776    1.42708329079908
C         8.39780018769432   -0.30186550021501   -0.01139825950641
H         9.48145810950898   -0.35052959964178   -0.05381903307519
H         8.05043122965170    0.15954743397599   -0.93139275265831
H         8.03212761568257   -1.32355031853069   -0.00814943548138
C        10.28787403087782   -1.65903108440848    2.65648975872601
H         9.36283573490081   -2.13487347509974    2.34908405277896
H        10.80390587754871   -2.34118439491017    3.32472611690615
H        10.90454433929775   -1.54159082493512    1.77179963132379
C         9.12889911510223   -0.37908128897665    5.18093922602664
H         9.82144708996206   -0.84197105931448    5.87794009841080
H         8.28985205970253   -1.05812906841603    5.05867343528785
H         8.75563426499557    0.53658308422402    5.63041380594065
C        11.54581357314435    7.00572938609748    2.22399661757084
H        11.22337100555954    6.62525374839352    1.25949850631565
H        12.53524342804726    7.43058233147362    2.09005934599918
H        10.87961264449009    7.81884781850777    2.49699296879684
C        13.19098358090931    5.83490740849483    4.50517465411885
H        13.31335016949855    5.05936269603727    5.25317406818131
H        13.22330673359594    6.79328333998528    5.01428255005067
H        14.04692984948620    5.78863948400538    3.83935028789542
C        13.28047285393881    4.21278218470989    0.65387019032693
H        13.98987731077833    3.61673736890109    0.08906412588644
H        13.81023462658945    5.07636032189275    1.04121236910415
H        12.52951240370119    4.57756793275486   -0.04135183883867
C        13.91357726200050    2.57210783792290    3.16736303535401
H        14.51946293312220    1.84518383131948    2.63570281802674
H        13.52917567873385    2.08962782855184    4.06029780988273
H        14.56841277602152    3.37672647603280    3.48399992361890
C         9.01276171981483    5.05922234635140    0.37269244790181
C         8.48343736296792    5.91668064165659    1.39795979202813
C         7.84353275568831    6.17868360654253    3.57770047370277
H         7.70684281940210    5.71522770705639    4.54512386960909
C         7.54959848970220    7.53228836806497    3.37929721011556
H         7.18419718048110    8.12432799880508    4.20336221853401
C         7.73666553108086    8.08575512741152    2.13662168458736
H         7.52484237769192    9.12798491520372    1.94466702368646
C         8.22648185212804    7.27478459560091    1.10013314872012
C         8.48911214134426    7.77260548879032   -0.20799302081584
H         8.28357349730444    8.81385032976727   -0.40777958314321
C         8.99891847202745    6.96784702321687   -1.17056479391642
H         9.21145140113911    7.35035726570740   -2.15801031357862
C         9.27860305830076    5.59588697443277   -0.90793352118204
C         9.82238668027966    4.73344544030710   -1.87437594237711
H        10.04435126849105    5.11022972977072   -2.86253894612740
C        10.05598603808980    3.42273434310723   -1.53548783474870
H        10.46885307977148    2.72902879774839   -2.25043872878970
C         9.74890562998299    2.98377658584047   -0.24374839793206
H         9.90374345188058    1.95352575252040    0.04171740069561

