84
CSD_code = QIZREZ | q = 1 | S = 0 | Stoichiometry = C36H45P2Ti(1+) | MND = 12
Ti        5.44474214431963    4.74514162461512   13.62039646605630
P         3.78066813277859    4.41263267325520   11.78810743612757
P         6.25911797633575    6.51116853522219   12.14839893653692
C         6.00766836715704    2.74834954984076   12.47683515174948
C         5.71324266543594    2.39958532592164   13.81403173342400
H         5.00004181558105    1.64667942028845   14.12130095345183
C         6.66458469711594    3.01536910028925   14.65116867782399
H         6.78832359648840    2.82373759531299   15.70826768254869
C         7.52073528060542    3.79705206204719   13.85076017020643
H         8.41407417239562    4.30681251726327   14.19105761878643
C         7.12274952570094    3.61787650199797   12.50365380202897
H         7.67997178640644    3.92249302240038   11.63169458704806
C         4.34812882470021    4.45943514707405   15.69021086926166
H         4.17725639809993    3.53706046717609   16.22898436233250
C         3.43937536092088    5.08180212876973   14.82032464363028
H         2.43718973007388    4.74070279985333   14.59498370621473
C         3.97823699164979    6.33464014452822   14.44622633463132
H         3.43949801319423    7.09456225715786   13.89385892618238
C         5.22095100025325    6.48883642619749   15.10640601904201
H         5.80823509976948    7.39375298715210   15.16930889578851
C         5.45363936303418    5.32192645492612   15.86184192796071
H         6.26208415421150    5.19041649761774   16.57036121182191
C         5.32026077927310    2.27509450908398   11.23026335227086
H         4.52561237945469    1.56829241032704   11.48796577304896
H         6.03403054030665    1.75933558211726   10.57993912794979
C         4.72619308060812    3.48780375546587   10.50001862659132
H         4.07682526886487    3.19272866938736    9.66929997136062
H         5.53217774164568    4.12955824082344   10.12961205209939
C         2.32836301241919    3.30485803495500   11.92124195188992
C         2.16287276698227    2.46586872966766   13.01774670040583
H         2.87562543712480    2.49820324748633   13.83248205821944
C         1.08840976861043    1.59458517543328   13.07253078164928
H         0.96401470555360    0.94655312652055   13.92694342338675
C         0.17354509897311    1.55644493932568   12.03365776789428
H        -0.66570465258480    0.88013079868821   12.07860231557428
C         0.33545235168705    2.38837413865034   10.93651566247791
H        -0.37613924074519    2.35860309731897   10.12568497476922
C         1.40765510348243    3.25851097373528   10.87582172909197
H         1.52995058980844    3.90921945146935   10.02068275359884
C         3.04392226308791    5.83144602993497   10.92255019087616
C         3.52401793995690    6.30896246009522    9.70741141558610
H         4.36937600930048    5.83597790348019    9.22954786371029
C         2.91073089349470    7.39224555598688    9.10010312228256
H         3.27867080654669    7.75164567935771    8.15096297317277
C         1.83172561165657    8.01532281251530    9.70576135664779
H         1.36045801075806    8.86097310385089    9.22988223070168
C         1.35628346871629    7.54976622604790   10.92211701655163
H         0.51360749652957    8.03184081010733   11.39372571031063
C         1.95645321594097    6.46185806148610   11.52752859139471
H         1.57211424983480    6.07867200900538   12.46501288206354
C         7.82839033470823    6.72913066828397   11.13151462171495
H         7.83887382922573    7.80102111911815   10.90685023933059
C         9.12015906256969    6.41467568298223   11.88898676743769
H         9.20980580620347    5.34506651070654   12.08145366880393
H         9.12270516987331    6.93290442870525   12.85156428587519
C        10.31733006515489    6.85912948242872   11.04910297839267
H        10.28066698260613    7.94035949792300   10.89901737290828
H        11.24255533145965    6.62836440012149   11.57925312941385
C        10.30534052892534    6.15734973637569    9.69391296510345
H        10.40785555350619    5.07971159922326    9.84165821111862
H        11.15412212273918    6.49215615098003    9.09688014979884
C         9.00594219161559    6.44827232862349    8.94822014321120
H         9.00009005666208    5.92352456526559    7.99135421097482
H         8.93844476915984    7.51836588531329    8.74085647299226
C         7.79800563780240    6.01484253687601    9.77880291095913
H         7.82976114466699    4.92935846113435    9.89796870151398
H         6.87584081501489    6.27306476670158    9.25054022376177
C         5.86666463509083    8.31661343516088   12.47898498457966
H         4.99679384890494    8.31547028342514   13.14327384172178
C         6.99742976272325    9.07825464306142   13.17811835306780
H         7.33019387216027    8.54310797845955   14.07246190182762
H         7.85804036921831    9.17823084263843   12.51539605058448
C         6.50944976265238   10.47669773402517   13.55290991617954
H         7.31214515417356   11.02272226435593   14.05122368298504
H         5.67324239443754   10.40006816830177   14.25213850712085
C         6.06269831570738   11.23385945285660   12.30567878762139
H         5.69531507160037   12.22191813070440   12.58503958197913
H         6.91774695990399   11.37280839744437   11.64065773220108
C         4.96874627237408   10.46401328131148   11.57122250574719
H         4.68298654953153   10.99857179651463   10.66396809131316
H         4.08334434047039   10.39158023692880   12.20736896497166
C         5.44607746814019    9.05921185888512   11.20672805802993
H         6.28248429889427    9.13987151574993   10.51047091120267
H         4.64313172860521    8.51279338818941   10.70772858732333

