63
CSD_code = QIZVEC | q = 1 | S = 0 | Stoichiometry = C19H39N2O2Pd(1+) | MND = 4
C        14.90152537066570   -0.98970521230876    5.68857598556423
H        14.74763146853284    0.03028622317575    6.04705903335356
H        15.69166108013199   -0.97695539069223    4.93381350438452
H        15.22611349565254   -1.61316677721649    6.52984936818957
C        12.59984560458973   -1.46841460939737    6.14094227361981
H        12.84140200952692   -2.14599608360236    6.96699201790838
H        11.64302402946632   -1.76396811543863    5.70314204312517
H        12.50114131743361   -0.45550155419808    6.53110844639102
C        13.80950479386689   -2.85983736230025    4.58568239861443
H        12.82119463378962   -3.32317272454612    4.52119254154598
H        14.42089592240180   -3.46928327495081    5.26388144648882
C        14.45037190310170   -2.81947118177283    3.19737201858111
H        15.49610336614618   -2.51177912195855    3.28413308271112
H        14.43225919204530   -3.82007548697947    2.74599509026044
C        14.62562019326204   -1.41958561967951    1.24131125902342
H        14.93683893652634   -2.27411874090171    0.63070878580020
H        15.51311054195531   -0.92471052420525    1.64350905889485
H        14.09166477781927   -0.70929803824225    0.61019397914538
C        12.51676072205927   -2.41413590967493    1.78154754459968
H        12.73498381260050   -3.28334153527435    1.15015877730782
H        12.01603132647006   -1.65674123881623    1.17461914454235
H        11.83936999616519   -2.72129157772409    2.58206834873813
C        11.92094786891746    3.28158106944323    5.57700710183939
H        12.21427354693677    2.77397757698230    6.49310347481444
H        10.85143756458338    3.47822929580926    5.61556756116085
H        12.44430887517218    4.23016328997102    5.50984326098437
C        12.24253385853958    2.39264547710174    4.39945478623144
C        12.05259193433351    2.86813063290576    3.09149001203649
C        12.31308505306660    2.07791515025011    1.95972830458270
C        12.06411753046794    2.63714978507485    0.57933486460075
H        12.39774930690060    1.91323685187090   -0.16060628972560
H        12.59707518302082    3.57117626329237    0.43140999069242
H        11.00109656950683    2.81866782193568    0.43460645738082
C        11.59267639543807    4.29564605303316    2.89528682203782
H        10.94732522793241    4.59917580064663    3.71782420759609
H        10.99844586802589    4.37882719440471    1.98697277081938
C        12.77314340262069    5.27199606893978    2.80562495149402
H        13.38236195368993    5.20187458095491    3.70924201368099
H        13.41706167419519    4.99913962247686    1.96691935348392
C        12.29826009851595    6.71194548734069    2.62856251931399
H        11.67087651708113    6.99343693129164    3.47729370582703
H        11.68379347890989    6.78241382716856    1.72824193259155
C        13.46546898039369    7.68995547992235    2.51860339945239
H        14.08616878159013    7.61595229187772    3.41484546025723
H        14.08811656771465    7.41556542544095    1.66360338503732
C        12.99081570934914    9.13148280324757    2.35297737091094
H        12.38044637403831    9.41222433621065    3.21444865969279
H        12.35926444786543    9.20391556033440    1.46447882053583
C        14.15798943519685   10.10662216716397    2.22216840431155
H        14.76326331070499    9.83062481384389    1.35531777417751
H        14.79469120553461   10.02943745008259    3.10682555633090
C        13.68695775130744   11.55047468429374    2.06636412518957
H        13.04141630141543   11.62623828542965    1.18842232180221
H        13.09261358189455   11.83180583962636    2.93860546081602
C        14.85749736818266   12.51441129016004    1.91862178069802
H        15.50390558056310   12.46732545468553    2.79234041933261
H        14.50074731684190   13.53565065854857    1.81084503793575
H        15.44997775162906   12.26383638329091    1.04132068889240
N        13.64779649060291   -1.49310881993007    5.11647768122418
N        13.75079781300004   -1.84699095814554    2.33675699136101
O        12.66009617319723    1.23904853618909    4.74360229558125
O        12.74167901634198    0.87806521047785    1.94351043635180
Pd       13.18687363937286   -0.26500181616159    3.52879997892057

