162
CSD_code = QIZZIL | q = 0 | S = 0 | Stoichiometry = C64H88B2ClN6Rh | MND = 6
Rh       -3.53246441684522    8.50008648326401   10.17244439638339
Cl       -4.16940173475814    7.20098528979627    8.40752740841139
N        -1.26601448264109    9.02377240453054    8.49631226807986
N        -0.54882303464339    7.38817622015713    9.70177536427707
N         0.69035395626599    5.94819697856221   11.44815924107427
N        -1.22324003728750    5.04689241275295   10.60555025642656
N         1.39839835954945   10.84916867973567    7.12934105560509
N         0.68807079105643    9.42769797416642    5.51866161731686
C        -1.62460445604598    8.18680100973642    9.49103727858060
C         0.02210841097139    8.78413729963876    8.05937012808619
C         0.46205451781726    7.76339578003111    8.83750426622471
H         1.40870281930113    7.26182066712408    8.84358879200231
C        -2.12629143028254   10.03118174195433    7.93429435964597
H        -1.70501710385418   10.36569869217121    6.99000924472377
H        -2.21537140070578   10.88519440029513    8.60776099301925
H        -3.11848700601579    9.60325798610779    7.76261252753286
C         0.46768918217381    4.69886080627675   12.01780978397366
H         1.13656839396107    4.30102330457353   12.75483414307226
C        -0.65965195750851    4.16918084836853   11.51844212079611
H        -1.10310434127655    3.21435767460100   11.72113227369955
C         1.77787286200304   11.33801104742627    5.89123671609553
H         2.32702339386733   12.25438435784421    5.79378991992603
C         1.35465340970952   10.49333794860572    4.93466814179528
H         1.47009061015454   10.55931934813258    3.87016366254443
C         1.92490732422842    6.57916810685231   11.74095764703923
C         3.11576096540359    5.90512424025916   11.42291894473588
C         4.32294438104657    6.44086121538475   11.84902886018784
H         5.24333217892106    5.92374133447858   11.62547678127060
C         4.36842970797140    7.62550635487802   12.55736153732011
H         5.31490662163252    8.01838019562656   12.89787031102158
C         3.19841622381620    8.31233366407229   12.81015405769293
H         3.23886644348368    9.25012539436472   13.34252061407851
C         1.96828623252322    7.80815521513404   12.40813160434992
C         0.71445528090345    8.58607335092910   12.72101280791365
H        -0.13942524148124    8.05399064269409   12.29421986730440
C         0.50326857474738    8.68433233605974   14.23397616327811
H         1.31333823752623    9.23446060544662   14.70639312561184
H         0.46024114442989    7.69056390342251   14.67498778576202
H        -0.43135968355240    9.19843749529282   14.44831938660842
C         0.77382945259857    9.97681316558704   12.08556811385842
H         1.62708664940247   10.54247501350788   12.45045478603326
H        -0.12836961356827   10.53323084322366   12.32725937271791
H         0.86016332442899    9.90021953834745   11.00315028658093
C         3.13192050971713    4.63982566264335   10.59175666946374
H         2.10648857612876    4.36118454721002   10.33577178802629
C         3.88189144437030    4.88924150457018    9.28059380210939
H         3.81856663492536    4.01172924894491    8.64073756120750
H         4.93163330518142    5.10543890861207    9.46395439505111
H         3.44441293609723    5.73286080645209    8.75266392866764
C         3.76349212176111    3.47150021534388   11.35140802059939
H         3.71371649237694    2.56696407232901   10.74921699840286
H         3.23922198097527    3.28891481373073   12.28638958426265
H         4.80712856731300    3.67256223613164   11.58006784564001
C        -2.36150656699555    4.61295921027289    9.87479374919915
C        -2.27102575713082    4.40984759634440    8.49409274264227
C        -3.37994481289157    3.92050781499093    7.81847772914470
H        -3.32978965226139    3.77971796393421    6.75008188121652
C        -4.54879628877589    3.62265204876417    8.48692749161588
H        -5.40557212309284    3.25225245531206    7.94365423113018
C        -4.62231177335464    3.81232878938650    9.85162768324426
H        -5.54292136736382    3.58625544282594   10.36814473546482
C        -3.53710195304955    4.29975398769527   10.56517542639667
C        -3.67895813623373    4.53614316369575   12.05133909791115
H        -2.71959208677577    4.86036361295010   12.46341199755957
C        -4.10762406282569    3.26904158810244   12.79423750832225
H        -5.09897907882092    2.94790275189299   12.48535312948144
H        -4.12953596996852    3.45533695842874   13.86643264372613
H        -3.41168168761064    2.45467871599324   12.60152096613543
C        -4.67373526722213    5.67309874065831   12.26649190462868
H        -4.31889647443376    6.54933751187447   11.71142289993221
H        -4.75366687510338    5.91766123741398   13.32396051843880
H        -5.66042273299152    5.40463518408671   11.89706517778279
C        -1.01567252138804    4.70904963401375    7.71015909887982
H        -0.25942786534847    5.11503201258164    8.38738796798544
C        -0.43857484414938    3.43364617537284    7.09080214670770
H        -1.15354629232610    2.97188854270902    6.41480889262442
H        -0.18640101192063    2.71295187384789    7.86690483072600
H         0.46249645951409    3.66798832436681    6.52703481871497
C        -1.31293036372480    5.75841169812908    6.63735846096281
H        -1.85872670248497    5.32104186716888    5.80569176301079
H        -0.39251730339603    6.18782375480667    6.25104861174415
H        -1.92606566884420    6.55130489753576    7.05725441686958
C         1.86892778257195   11.46281918604280    8.31756242325008
C         1.21377537025074   12.57956575168150    8.84252716550301
C         1.72327651335338   13.17316859379612    9.98981039740466
H         1.23628780722573   14.04237155167107   10.40371370605739
C         2.85219431721506   12.67061995157602   10.60513182211036
H         3.23819684199004   13.14567456265774   11.49525085361037
C         3.49622694441936   11.56854841422576   10.07534969603118
H         4.38496267324941   11.19306698223428   10.55713164432476
C         3.02034795248890   10.94970327083944    8.92908941697956
C         3.76628010363265    9.79313301409459    8.30633504370482
H         3.06564269024584    9.23603661393206    7.67751453070782
C         4.88794008770371   10.33443907131229    7.41376523808348
H         5.43535311846142    9.51241467624557    6.95758751889066
H         5.58331111498508   10.93167135640611    7.99999975868738
H         4.48017105858316   10.95734893844006    6.62106949631039
C         4.32452604867806    8.81960558146805    9.34010211732294
H         4.71107835595950    7.93402875254667    8.84071620939650
H         3.54543952859923    8.51515299222060   10.03324782856089
H         5.14007864366815    9.25978291394005    9.90752220296817
C        -0.00400261393376   13.15913341350576    8.16206623337608
H        -0.37058846533059   12.42877493265899    7.43487338476384
C        -1.12499091944202   13.44944638240351    9.16222552753121
H        -2.06004346695631   13.62871590295527    8.63523916591846
H        -0.90182304415882   14.33262355514539    9.75569578651496
H        -1.25665772750061   12.60946787264085    9.84034918950775
C         0.37381679788970   14.43641437927939    7.40652625369395
H         1.12024898091613   14.22657599621588    6.64438486854563
H         0.78246697430949   15.17721871561641    8.09037982665169
H        -0.50338012479169   14.85897696995299    6.92132636853941
C         0.29597423070575    8.33926752441695    4.69316256472193
C        -0.94802242918005    8.34376634058752    4.05704108502905
C        -1.27752472341751    7.28115284298450    3.22622840626083
H        -2.23733662159727    7.26900526469459    2.73392422331913
C        -0.39086288984357    6.24605523824673    3.01056445311163
H        -0.65823582631213    5.43044970301491    2.35504508426969
C         0.84610387490264    6.26166837641588    3.62495749808939
H         1.54114683000535    5.45822278913361    3.43512046946933
C         1.20686573180525    7.29739589010485    4.47510228322840
C         2.57856861419995    7.30900837817542    5.10888550095259
H         2.60495516941639    8.09421319241266    5.86954263826593
C         2.89916413523810    5.98391203459588    5.80010056784289
H         2.97846530634780    5.17077400492437    5.08327475315100
H         2.12155744269698    5.73518466972144    6.51900724354832
H         3.84941582832740    6.06085632404510    6.32462416412859
C         3.63599545316062    7.63790163415781    4.05141353006907
H         3.63396931555997    6.89053363792144    3.26117534280169
H         4.62579327285015    7.66208024007319    4.50244912043801
H         3.43758911008640    8.60995262401825    3.60552088579244
C        -1.91671206397025    9.48862372054010    4.22323394851963
H        -1.49872845246638   10.19250917775826    4.94880650127125
C        -3.27143739701001    8.99822512815559    4.73740967644251
H        -3.78111817834041    8.40772392464807    3.98098678937998
H        -3.90643965244434    9.84591280533754    4.98568235605923
H        -3.15456437802169    8.38007683287446    5.62351701783924
C        -2.07939081685490   10.23993289287143    2.89836319033760
H        -2.48974973976147    9.58814168423731    2.13118244874956
H        -1.11888805508350   10.61519113608871    2.55037057355843
H        -2.75316246128462   11.08425924006180    3.02780877791496
C        -3.07801191601290    9.14315625431691   12.13042031995193
H        -2.17658877540750    8.64604033404791   12.48488408380279
C        -2.92668437799370   10.22022199870137   11.25126358549777
H        -1.91186495881009   10.49842491771970   10.97280795748069
C        -3.92608126691987   11.35848276290568   11.20408597485705
H        -4.35913245591875   11.49194870575437   12.19704551541161
H        -3.41089462500420   12.28908037744225   10.95409016822564
C        -5.04177588384739   11.11284882657203   10.17154217462834
H        -4.75129326865191   11.55615406058778    9.21567780527563
H        -5.96375078149840   11.61272550532652   10.48993495354689
C        -5.33319139163803    9.64636434392811    9.94596655325744
H        -5.73127404824351    9.42430104178634    8.95600621263813
C        -5.56202445584208    8.72357414966716   10.94973116091295
H        -6.12632767512447    7.83385235414889   10.67794926670296
C        -5.61415757512909    9.09526783309941   12.41679681015146
H        -6.28787157053740    8.40805388399338   12.93171699191316
H        -6.04465451903474   10.09566436641240   12.50587497362598
C        -4.23284489324463    9.05056572849328   13.10309706619980
H        -4.15085792766529    9.86950452760357   13.82864197318517
H        -4.13636704506578    8.12167546386042   13.66550235145819
B        -0.40283283260085    6.20344784120081   10.56535974891008
B         0.69529097307825    9.62727963237730    6.92759845465403

