38
CSD_code = QOBGAS | q = 0 | S = 0 | Stoichiometry = C14H16CdN2O5 | MND = 7
Cd        4.88311707158930   13.74142540978359    9.77873272668779
N         4.30794821943949   14.07472531802816    7.56762852334384
C         4.98488652585486   18.60498319873195    8.86248431073686
H         4.75475439978458   19.65546802364746    8.76066721677494
O         4.15448056904616   13.62143081682743   11.85674886982735
C         3.14886979051367   14.29639146851093   11.53062891176987
O         2.99627076820316   14.74621546644676   10.37512113944080
C         4.08237304709085   15.63615019126949    5.78948903800468
H         4.19926340527039   16.64085947351003    5.41559529396357
C         2.09065117693674   14.57580551944549   12.58376038353975
H         2.56577812822069   14.78392021490888   13.53832140509294
H         1.46805742500378   15.40931324553577   12.27358898755721
H         1.47289027724729   13.68708603393100   12.69225103464838
O         6.91123010130556   14.34769245668774   11.74800960533209
H         7.28283429109940   13.59185640061520   11.27511756951590
H         6.17630821033052   13.99248138372405   12.26538617801807
C         3.87805795805060   13.11335378261548    6.77030935239585
H         3.81665671605354   12.12802727029767    7.21551528007217
C         3.64151858845727   14.62851690876357    4.94859112486473
H         3.39504587709596   14.84678663408751    3.91978126112793
C         4.39446722266919   15.32469359566839    7.11353445119581
C         4.83924075765777   16.34585627064861    8.08214070640844
N         5.52890734765766   15.90692409461271    9.13721296358311
C         5.96295573373919   16.77596171495124   10.03480711080075
H         6.52609395805479   16.35623543095194   10.85873280880890
C         4.53871884961220   17.69730920655083    7.91696072426963
H         3.94275112109796   18.03304717741018    7.08338159433813
O         4.59261230846657   11.57131996169647    9.41444416049317
C         5.82522931679543   11.41446403170333    9.52580264503180
C         6.40410305126118   10.01036869754472    9.48694109308281
H         5.67547293082371    9.31681613251909    9.07874773912354
H         7.31505062024587   10.00472780626352    8.89490916779634
H         6.65156645486043    9.71159870447654   10.50327680867806
O         6.61186839214546   12.38303961712610    9.67017159782552
C         5.72369560366847   18.14015831667333    9.93733579285162
H         6.09638554666640   18.81457746554270   10.69171517266363
C         3.52227441081609   13.34167750368691    5.44797872390284
H         3.16931382737201   12.53323505440769    4.82777852636746

