52
CSD_code = QOBQOO | q = 0 | S = 0 | Stoichiometry = C22H24CrN2O3 | MND = 9
Cr        2.42419784622666    7.52525138943376   21.63140748322903
O         1.80206454206589   10.23757550815885   20.58630449482047
O         2.24323447966096    9.08473704772023   24.16159138349706
O        -0.54345888915771    7.59073603881321   21.81159374061287
N         1.59605987152601    4.47005169799301   18.32323644132649
N         1.47022943341962    4.18998669460352   21.09764740560630
H         1.05659723477000    3.98916880709833   20.19559490296406
C         1.73479444723373    6.92469107412217   17.72061116949616
H         2.67740611384248    6.82319944586515   17.18762193773899
H         1.67815158782022    7.91295486929260   18.17102916413204
H         0.92469162528538    6.83583974264524   17.00078024852805
C         2.85559912310277    4.06435325501185   17.73523494041256
H         2.86135103697340    2.97795801283516   17.64218533811843
H         3.67241780438787    4.35895417356285   18.39243037671944
H         3.02740881580945    4.49309036023011   16.73812959723094
C         0.47350556520899    4.12193274749948   17.47742226830391
H         0.53079460548337    4.56212143851712   16.47254710046303
H        -0.45308420171946    4.44575468779297   17.94992984435589
H         0.44635634842291    3.03685410688762   17.37016221879484
C         1.57499288211798    5.85622292509727   18.80838979535658
H         0.57247809722802    5.99482160695136   19.24136473617438
C         2.56729877905865    6.00496169260313   19.95183267662672
C         3.66094846416792    6.87974805346620   19.89595432779431
H         3.88666051713250    7.40482784473820   18.97669969814126
C         4.54738681903835    7.02105187877239   20.97900303482146
H         5.43266915104321    7.63687353500634   20.88235790796639
C         4.27461968510543    6.34045187828041   22.16570751158945
H         4.95266521483761    6.42280120913528   23.00787417989263
C         3.21677785210296    5.41778586239751   22.23057339520208
H         3.11006148321390    4.79710190827233   23.11011887126260
C         2.39554560197355    5.18065659299496   21.11018718106859
C         2.08436655243834    9.17977633004793   20.96672813122180
C         2.35003826614835    8.44375377860026   23.20386582831357
C         0.61467451715873    7.53583557224447   21.76792367852111
C         0.84217827336278    3.59687295323822   22.25133570854149
H         0.91213303220140    4.29816911980909   23.09331645852328
C         1.43329352387783    2.21369728560101   22.62152517259197
H         1.90657899142898    1.79942653741062   21.72954959788464
H         2.18686211098807    2.28112982328688   23.40441927879910
C         0.24179968918675    1.33698901977884   23.03704005157970
H         0.35735805090278    0.29997286079922   22.72091775937957
H         0.11549205020189    1.34223327281691   24.12293017076755
C        -0.93631000815930    2.00571217330569   22.39318860902211
C        -2.21660312023630    1.52110067646133   22.21143247058071
H        -2.48020382751133    0.52494066651885   22.53546316853160
C        -3.15888899796538    2.33675123871181   21.60105925256753
H        -4.16285721056612    1.96930232914625   21.44787651003220
C        -2.82803934822845    3.61822685849601   21.19164644729944
H        -3.57654927270436    4.24249868590904   20.72728738045576
C        -1.54359829698890    4.10868563211887   21.37684786717856
H        -1.28783998727060    5.11397570721101   21.07648774833978
C        -0.60620692565514    3.28893339268850   21.97333533761877

