84
CSD_code = QOBRUW | q = 0 | S = 0 | Stoichiometry = C27H51Br2FeN3 | MND = 5
Br        7.72912971357836    7.96219531397044   21.70629604407936
Br        7.60670374419789    7.72000168546667   25.01730673522681
Fe        7.31462412696199    6.23000422686634   23.24558015681600
N         9.12484788477083    5.14989606099047   22.64301775221670
N         6.29146800826278    4.88771746521338   21.84614695089376
N         7.01783190600682    4.47452279421509   24.61681695498433
C         8.73201129524276    4.76511653756311   21.27687505207213
C         7.34240607960498    4.13692187722758   21.14524522843710
C         5.50029085688199    4.00220734343748   22.70432754065206
C         6.29415668823433    3.43410382602417   23.88045518497689
C         8.42687911540029    4.12896017724497   24.82907762364404
C         9.24826940900648    3.99033705826312   23.54103883279058
C        10.39008770628278    5.93869144520376   22.57387471934180
C        11.60257618236875    5.16316725071858   22.03072816392666
C        12.66281542421724    6.09187696280546   21.43847545623611
C        13.20984935637468    7.15110373231329   22.39589126465767
C        12.21622857150529    8.27940384266214   22.68028401345412
C        11.23504682156417    7.99841380261580   23.82144647254635
C        10.75460301633354    6.55036042438639   23.92941388839841
C         5.42632328895538    5.65855461403432   20.91037816189907
C         4.52916460084188    6.61334117041904   21.71076154082419
C         4.21889139612700    7.91662494161239   20.97263728857550
C         3.13742823696202    7.79823930239696   19.90559738969027
C         3.43764269744220    6.75344456371001   18.83482737010388
C         3.35000079117387    5.32391335804828   19.37122267667093
C         4.66880838315387    4.76420016268460   19.90585380174758
C         6.36367188234853    4.78795744214110   25.90837775878566
C         5.01598059694255    5.47119583307358   25.66356793962944
C         4.55259617531182    6.31511973505768   26.84905033106764
C         4.46512813485007    5.57393698396350   28.18329464308559
C         5.83658878381383    5.25682998933409   28.78401666595406
C         6.45760095771499    3.93628980711740   28.31396883955241
C         6.18693345685935    3.58455862361884   26.84933053825904
H         9.44043674615242    4.04805147569441   20.83944724704850
H         8.75790383853359    5.67465499271672   20.67546645870620
H         7.12918187072394    4.07261521350257   20.07504585141319
H         7.36334165124150    3.11060875041045   21.51773436581086
H         5.09127837791871    3.15023365321370   22.14158577646508
H         4.66480824374559    4.57907207766963   23.09385237345475
H         5.58561853366650    2.91588465874679   24.53197951010768
H         6.99706368477049    2.67818216372644   23.52630529380555
H         8.53470713917692    3.18858750423383   25.39052593353637
H         8.85798437751659    4.92762505231111   25.43391983726541
H        10.28756767021430    3.85887641733615   23.84949428963492
H         8.96379585601220    3.08015978679327   23.00733096046607
H        10.17312092420765    6.75456835271547   21.88341078560982
H        12.06276126818607    4.57227871069933   22.82752530086049
H        11.30735273539053    4.46883018903459   21.24249210107937
H        12.24523693196452    6.59546195325859   20.56351685805101
H        13.49325238323404    5.46973476445071   21.09257908404862
H        14.09843439745292    7.58320805457392   21.92896219864430
H        13.52964736025102    6.68588650395206   23.32973844885849
H        12.76962040138854    9.18559421857490   22.93428345388084
H        11.66421658643035    8.49676471736150   21.76435330833645
H        10.36696558417199    8.64486626443915   23.69234611355467
H        11.69621185505408    8.26380101126645   24.77462701720423
H         9.88100365590302    6.55870895991344   24.57453194677998
H        11.51590950323825    5.94250680519746   24.42258036727091
H         6.11850950288127    6.28632169384783   20.34349912130257
H         5.08057335957461    6.88637518129133   22.62419347377028
H         3.59870039829273    6.13313898204661   22.01599913173741
H         3.89133244599404    8.65508279163623   21.70754002152800
H         5.13581197319303    8.29732699411282   20.52272900056250
H         3.02595687701572    8.77369531708143   19.42769952846617
H         2.18089865768162    7.55506686367004   20.37718661455391
H         2.70703462228335    6.87086133396056   18.03109593189785
H         4.42576072362117    6.93358655396659   18.40929367947432
H         3.02784845877882    4.65608642045483   18.56783977609597
H         2.58095691457024    5.27947621620531   20.14448957662572
H         5.31768570307251    4.57943075103156   19.04587638200686
H         4.44665855081080    3.79423619569548   20.35485739544203
H         7.01738720083266    5.51214820160226   26.39572020504952
H         5.11825822745474    6.14198910804239   24.80355939292106
H         4.25217217384471    4.72687082085985   25.42296420360762
H         3.56692382083131    6.71961141126949   26.60636967910886
H         5.23450707591012    7.15978647199397   26.96160459835254
H         3.92991747820456    6.22242526841399   28.88029151980727
H         3.87620310143714    4.66100716210834   28.07630749036089
H         5.75092772531943    5.21228764366917   29.87171768949282
H         6.50855865218639    6.08505878389617   28.55409161745693
H         7.53614505417608    3.98718737875731   28.47932983642171
H         6.07391641162704    3.11753422855986   28.92785057649516
H         5.16954535109963    3.19657001804673   26.76345104847952
H         6.86100267346447    2.77096760159387   26.57172464589831

