57
CSD_code = QOBSIJ | q = 0 | S = 0 | Stoichiometry = C26H23FeNO5S | MND = 9
Fe        2.06798011905907    1.54041803592732   -0.62765415924865
C         3.22185016379348    2.77753419638414   -0.21416123420817
O         3.93843774547276    3.65586729375944   -0.06002626861467
C         2.57339738067041    0.41651793349730    1.10644571879181
C         1.33987155266382   -0.24126882581650    1.53224297374755
N         1.07532840709405   -1.27958262549830    0.66931296852210
C         2.14304973816419   -1.45987773637710   -0.29530111585098
C         2.98261519680502   -0.22564355174671   -0.09637127533374
O         0.60697313460590    0.05856871598581    2.46351699420422
C         2.93090492531976   -2.75172753051431    0.01951017084084
C         3.45652053009103   -2.73603019908593    1.41991247342167
C         2.98807573631173   -3.48899021639706    2.39674474695759
S        -0.45509727429930   -1.96493382533082    0.46564776427506
O        -0.38892825608513   -2.63472449316381   -0.80246797566375
O        -1.44109503012014   -0.94779498132004    0.64002514581634
C        -0.54722482573374   -3.16161697778804    1.78033032038680
C        -0.48853381989320   -4.50525131836708    1.46724229819061
C        -0.53809302674025   -5.43628285267844    2.49248495639198
C        -0.63927070446240   -5.00731409235880    3.80728627083475
C        -0.69711469786918   -3.65393158783038    4.10424405984111
C        -0.65418500657842   -2.71801914297593    3.08331763877596
C         3.78156697251599    0.38075091375405   -1.06516638374137
C         3.37027416370528    1.27139069516108    1.99672700274817
C         2.76676282960769    2.36795868675258    2.63691329093067
C         3.54384507743909    3.22921621108942    3.39968361687853
C         4.89930915666719    3.00389169467451    3.55223613090940
C         5.49626328438124    1.91402980697698    2.94162531527982
C         4.73515860081013    1.05933951516392    2.16654196143471
O         1.45696121150805    2.66147649704372    2.44643363619833
C         1.02260807134841    1.53616078420909   -2.50924557127906
C         0.26982163592441    0.78888722100764   -1.57874506466629
C        -0.09955743026666    1.64873821028838   -0.51831330434470
C         0.45109151366587    2.91510271379205   -0.76776742045912
C         1.15589187051397    2.84630766646380   -2.00730003711604
H         1.72576454144925   -1.54984861509698   -1.30045305298958
H         2.25986341579451   -3.59978879819166   -0.12572832501941
H         3.75563461356807   -2.82316946384056   -0.69321916956639
H         4.25299646798150   -2.03007642645899    1.61158867839858
H         2.19329955342229   -4.19957874008056    2.23738486164972
H         3.38325797383479   -3.43301860579815    3.39627933078184
H        -0.41184163402867   -4.79649353341835    0.43130777939084
H        -0.49509855048215   -6.49116893092008    2.26691075811891
H        -0.67415521679929   -5.73396168377703    4.60537747803990
H        -0.77705000755254   -3.32765081945424    5.12966021646701
H        -0.69122609285180   -1.65757268760119    3.27591520940723
H         3.84492646558942   -0.10679710365948   -2.02766811694177
H         4.67712190916139    0.91632198346763   -0.78991735080767
H         3.06451075432258    4.07990260547423    3.85733256296675
H         5.49049728703445    3.68118244546808    4.14957834635923
H         6.55356778659120    1.73352251227072    3.06273168654032
H         5.20057106792171    0.21649345547440    1.67568180332866
H         0.94499144849793    1.83134860906858    2.40756627730094
H         1.39300864842160    1.18296737714878   -3.45529000704818
H        -0.10556288150587   -0.21008141567913   -1.71567082397164
H        -0.74050732329637    1.37268280186482    0.29968884356269
H         0.30204430697496    3.80023417615350   -0.17519033585529
H         1.60912651986436    3.67878402290520   -2.51907229496258

