73
CSD_code = QOBTOT | q = 0 | S = 0 | Stoichiometry = C32H36N2O2Pt | MND = 4
Pt        0.00015033256831   -0.00047645994958   -0.00016635815409
O         1.50052872832702   -0.30459088410340    1.34289665567107
N        -0.67043530681413    1.51927654882606    1.12146840335787
C         0.64989494196530    1.05046916882722    3.12174873117298
C         1.54100956205179    0.10723294768694    2.55707241565863
C         2.58560436719518   -0.42392224705953    3.41012891142759
C         3.55331784045274   -1.29657941489210    2.88895857619823
H         3.52511388240798   -1.51807374772770    1.83323574794355
C         4.52198895702257   -1.84180138602605    3.69182967219112
H         5.25958890511873   -2.51342553458858    3.27705631770183
C         4.55957900707791   -1.52486203469377    5.05261063066359
H         5.32156125765286   -1.96133973433411    5.68219285156662
C         3.64138823005583   -0.65541667729505    5.58173156588567
H         3.67611284786056   -0.39485261885433    6.63018211938304
C         2.64024726476481   -0.08076397633997    4.77946405274217
C         1.69700935971215    0.83897182330786    5.30638429437028
H         1.75046955948253    1.09825510267227    6.35307768241515
C         0.76141852691850    1.39162074996638    4.49666893782412
H         0.05792897636530    2.11059087565622    4.89398093522504
C        -0.32561655692894    1.73190279946720    2.34883439575914
H        -0.81745937753420    2.55613252345471    2.87291382086450
C        -1.56511727645175    2.47403646223496    0.50430816190974
H        -2.01140526556995    3.13145662289802    1.26191177898041
H        -2.36161709055378    1.92719240970696   -0.00304118396188
C        -0.79721439634295    3.31256880873106   -0.52357434042988
H        -0.29650858900398    2.62829057717309   -1.21587890359016
H        -0.02783554756410    3.89365030660790   -0.00854023248722
C        -1.71924710567268    4.24486524964830   -1.30250099539025
H        -2.48393786817542    3.65400147038009   -1.80942994122470
H        -2.22373806516193    4.92342310164843   -0.60951786445560
C        -0.95837291369169    5.06062880545971   -2.34456799772433
H        -0.44061967449555    4.37902456399728   -3.02267614096896
H        -0.20273045608260    5.67374263986771   -1.84792803601691
C        -1.89408029273761    5.95618863320322   -3.14702008813237
H        -1.33730033817568    6.53368681644132   -3.88105099301934
H        -2.63428167374621    5.35608304256842   -3.67180338623919
H        -2.41697468510989    6.64892569031035   -2.49093619105705
O        -1.49996962169366    0.30378276523613   -1.34350093464125
N         0.67052320005537   -1.52039886570222   -1.12167833730626
C        -0.64881275547867   -1.05090707162436   -3.12239684320638
C        -1.53992775741401   -0.10758516375912   -2.55784839681641
C        -2.58409007819399    0.42394522085444   -3.41120371323516
C        -3.55188057409409    1.29661859915768   -2.89021190566493
H        -3.52405462563940    1.51781408515806   -1.83441735321274
C        -4.52005588803589    1.84230856536120   -3.69336081496103
H        -5.25770203532894    2.51397247963644   -3.27872573912329
C        -4.55706260588003    1.52582615118330   -5.05426391581970
H        -5.31866663835872    1.96264745042979   -5.68406712503730
C        -3.63881739933880    0.65634306823263   -5.58322731418294
H        -3.67311748065604    0.39611427521181   -6.63177494175416
C        -2.63818485813929    0.08120373015476   -4.78066948824452
C        -1.69491230904639   -0.83858332665318   -5.30743351450336
H        -1.74797076857226   -1.09759056871733   -6.35421650807485
C        -0.75981644465587   -1.39167235189457   -4.49744707636881
H        -0.05634037048370   -2.11072837615328   -4.89462135950535
C         0.32609497414124   -1.73285590272359   -2.34917515449975
H         0.81793920555214   -2.55712902532656   -2.87318524000195
C         1.56457589199411   -2.47545259701747   -0.50410837145306
H         2.01077578876591   -3.13324008758698   -1.26144472453848
H         2.36118046240008   -1.92888246218977    0.00338190947443
C         0.79592363502782   -3.31334312653494    0.52373235242322
H         0.29442722716368   -2.62858452024327    1.21504618352168
H         0.02711378398654   -3.89498012077343    0.00845012997924
C         1.71751537303735   -4.24477127592562    1.30425369759181
H         2.48117245996005   -3.65318401029205    1.81196520828899
H         2.22335326702851   -4.92337155501263    0.61221378810077
C         0.95560403303773   -5.06048047661690    2.34567021706652
H         0.43641058664323   -4.37887792735249    3.02276307214202
H         0.20107491747103   -5.67436294077486    1.84821217004732
C         1.89084382785539   -5.95507263775847    3.14981947969874
H         1.33338687904311   -6.53255161905286    3.88336464110570
H         2.62999380587137   -5.35426578634142    3.67532927271733
H         2.41505282478910   -6.64781761947624    2.49475264392437

