37
CSD_code = QOBTAE | q = 0 | S = 0 | Stoichiometry = C11H22N2OZn | MND = 4
Zn        1.59693288867937    2.92848348425872    1.16494944942837
O         1.05983887893041    4.81117655745829    1.20130187055489
N         3.50399584267922    3.37809048138624    1.65592277161100
N         2.43050360239864    2.71681176369012   -0.98503487048271
C         1.05802507443269    7.08889972912096    1.82504394954515
H         0.54562431392299    7.32899373624442    0.89566065567824
H         1.74669594606688    7.88797451564835    2.08040521260030
H         0.30190151636951    7.00562692750774    2.60403200599849
C         1.76155846547471    5.75193222568972    1.68145804175824
C         3.09492311533494    5.68212002486179    2.05573795763621
H         3.54058486157806    6.59550387047365    2.42011244886197
C         3.94556019842735    4.56478539597101    1.97403428015531
C         5.40738868323019    4.81435732954680    2.27733506593962
H         5.72667973433187    4.20682322350241    3.12369379682711
H         5.56913090029226    5.85885956547929    2.52591302147076
H         6.03438174642448    4.56322953966943    1.42324170903209
C         4.41124772291279    2.28935598919372    1.38220446032856
H         3.90618875006530    1.35908280423742    1.65715138675065
H         5.33810342735733    2.35684954903878    1.96303180102281
C         4.76192788530814    2.23372746953881   -0.11187567749094
H         5.55148014992757    1.49163890322592   -0.25491496764128
H         5.15777281416586    3.20081951276186   -0.42576084127226
C         3.59311358322465    1.82575076123033   -1.00792415994710
H         3.96865652854594    1.73611145725518   -2.04287662150100
H         3.24721624497926    0.83878310417388   -0.68855476026920
C         2.76649600714501    4.03899747108214   -1.49641012963664
H         3.47559472002428    4.52830508896710   -0.83515267560064
H         1.86499741157914    4.64709469313446   -1.51957725672078
H         3.19005157688238    3.98382744045834   -2.50931349373885
C         1.38533759063531    2.14165403830609   -1.82459715572356
H         0.50250862386000    2.77609823736222   -1.78250388269714
H         1.11808427157288    1.15354385887539   -1.45583351898555
H         1.71163624276183    2.05290789590047   -2.87067619002002
C         0.40463319846653    1.37880645275011    1.61243446393175
H        -0.09114388873717    1.49802780913938    2.57124256629346
H         0.94899133669287    0.43974956274995    1.66507115982776
H        -0.38401996594365    1.23729953010880    0.87932812647526

