21
CSD_code = QOBYAI | q = 0 | S = 0 | Stoichiometry = C5H6Cl3N5OPt | MND = 4
C        -5.18121864287427   -0.20820180769280    3.44511874262458
C        -3.20882858631894   -0.95659116636184    4.25609686214770
C        -3.81643993087158   -2.04425213264119    4.88311379428231
C        -5.22885002058708   -2.27032487100394    4.80771160678461
C        -1.66667231851622   -2.06935079817862    5.24316492541980
H        -0.68610999826298   -2.35420562647757    5.58341542115486
N        -5.82921303852698   -1.25489179846428    4.03388883183562
H        -6.83386943676787   -1.33981845791949    3.93245145721348
N        -5.91065718166289    0.68105112344854    2.75257298926504
H        -6.89927874089504    0.56950846044547    2.62162492812328
H        -5.43492588593382    1.43963458770852    2.29697443537189
N        -3.88862176503935   -0.03000313604160    3.53342218917331
H        -2.85860980200507    1.08856261073392    3.00173312429325
N        -2.80425851589613   -2.72849212026886    5.50113190845172
H        -2.91139966108219   -3.57111638418898    6.04392499508149
N        -1.86937592374001   -0.99678544676944    4.49497972905854
O        -5.89430229537785   -3.15455127563553    5.29042978508966
Pt       -0.27576913254564    0.26209298881372    3.86949433534781
Cl        1.41831142239157    1.56750488526004    3.22104451982585
Cl       -1.74453072703791    1.78711836732979    2.74299887398224
Cl        1.21822018155846   -1.07298800210120    4.87190654546608

