66
CSD_code = QOBZUE | q = 0 | S = 0 | Stoichiometry = C21H39Cl2FeN3 | MND = 5
Fe        0.72698816537489    7.41572543502780   22.40385958377270
Cl        2.19080508665511    6.45415694392458   23.66974585160194
Cl        0.58445574696513    9.05230280006406   23.85157668652128
N        -0.93460396762298    8.02022604353704   21.27271137149607
N         1.85827632809285    8.63152028860926   21.05564874291270
N         0.91080154744930    5.90893400853836   20.90177451969575
C        -0.49865512459688    9.04411584052081   20.31599780302390
C         0.84667384425212    9.64668286621215   20.71991876994824
C         2.22109119820555    7.79133623027915   19.90599961656119
C         2.18109804937645    6.30929843034693   20.28546110787360
C        -0.22321785336819    6.01570665034680   19.97867381824391
C        -1.38110590194836    6.80567053266008   20.59442011944570
C        -1.95271484207086    8.54499198374810   22.20226732585089
C        -3.35795763546008    8.74653767684118   21.60263650270898
C        -4.18893932730416    7.54667365935603   22.05612144243047
C        -3.63624387983565    7.21758258052148   23.44389754006800
C        -2.15436087215595    7.61404445701783   23.41353994813386
C         3.02080352921505    9.32076826292108   21.65484551165398
C         3.64727084388667   10.43542308177691   20.78212701365713
C         5.14699717091421   10.44336619360050   21.12473387098909
C         5.29582738283899    9.47464052894927   22.30049594298205
C         4.20907958574089    8.43913530043284   22.04031129812123
C         1.05879029385519    4.56833397598863   21.48297779572435
C         1.30254809180159    3.40342132199856   20.49300881272125
C         0.44582036142738    2.23647278148318   21.00816880757468
C         0.08409307646134    2.62173162585412   22.44341517728895
C        -0.12807494376006    4.12763789938018   22.34250744513790
H        -1.22705698736178    9.85933878955245   20.25571071644421
H        -0.43390203092214    8.60245091130736   19.31948165295243
H         1.19000479222064   10.30759041851445   19.91317504051571
H         0.69866811777226   10.23711185405522   21.62558399270076
H         3.23163391019138    8.02092900169769   19.55619562537727
H         1.54770376545314    7.99416275652602   19.07118740401566
H         2.40498202081744    5.70042618519600   19.39767702118563
H         2.94793232262086    6.13205851659309   21.04018378375242
H        -0.60311506966113    5.02558565377637   19.70935475341562
H         0.10246612424529    6.48985011435057   19.05123095617788
H        -2.11249722326023    7.02935289931491   19.80454844765801
H        -1.86788463541830    6.18206196598087   21.34029417521192
H        -1.54334202157841    9.49306715847237   22.55233125206574
H        -3.78594686884124    9.65730188227654   22.02222813751488
H        -3.34308498660768    8.85639486167380   20.51847469721611
H        -5.25247181093263    7.78144873326897   22.08898482651779
H        -4.06112230249776    6.70327360196111   21.37626112427272
H        -4.15712090152890    7.81639935782677   24.19102599853964
H        -3.77761175833598    6.16867896113731   23.70189360710383
H        -1.49126047522152    6.74236916834578   23.34092351203608
H        -1.86969348515447    8.13757873733212   24.32335707597627
H         2.64301059626560    9.76734573106292   22.57792195039815
H         3.50343852214354   10.23261464282505   19.71932009801225
H         3.18908325017519   11.39896643388949   21.00070959055720
H         5.73117326926773   10.08528600023815   20.27509809256581
H         5.50190304601404   11.44247574921218   21.37249011513276
H         6.29010056334765    9.03453499321915   22.35264354480099
H         5.09531358663734    9.98830977564698   23.24029981720565
H         3.98606631768313    7.82361589236044   22.90644725881317
H         4.52087879032806    7.79320200505570   21.21925714443925
H         1.91602119202796    4.64166782229074   22.15620674746581
H         1.03071622357440    3.66535717556586   19.46968820903151
H         2.35822382849736    3.13487212909005   20.48940592348417
H        -0.46598058613380    2.14352896031471   20.41419524269214
H         0.97438185062196    1.28620632444561   20.95731431078316
H        -0.79594147095377    2.09380721600413   22.80763686250939
H         0.91883825923172    2.41174749206180   23.11148905553541
H        -0.11359545108568    4.63113752051829   23.30986215281107
H        -1.08135823803348    4.31745520709989   21.84906765697024

