131
CSD_code = QOCJIC | q = 0 | S = 0 | Stoichiometry = C52H74N2O2Zn | MND = 4
Zn        0.46267099309112    2.64407795429239    5.01007253622886
O         1.49551289410061    2.54446431906116    6.61361747419615
O         1.06318214271655    1.35441501420898    3.73534741699484
N        -1.10906969990816    2.47318262279245    6.14713893499118
N         0.68353879083608    3.97080351558439    3.60209471952724
C         0.73351624676043    2.26048694135534    7.60686919283658
C        -0.70165642617521    2.23653535856526    7.39615900195704
C        -1.57170804488707    1.93015679885097    8.45981389224640
H        -2.62533516512545    1.88649941990088    8.23610703511586
C        -1.08173602201863    1.66574036777367    9.71170514474406
C         0.31660306200777    1.72278538255357    9.91149854292839
H         0.68278211015276    1.52668268434055   10.90422225751955
C         1.22451310895571    1.99738685071729    8.91764506480891
C        -1.97272632851294    1.31257110620880   10.89061707281634
C        -1.56713241950050   -0.06393192833478   11.43712656806594
H        -0.54121886883481   -0.06625277662682   11.79395759673332
H        -1.65926887470275   -0.81789181839212   10.65826017375006
H        -2.21505766348491   -0.34201619763946   12.26569750040476
C        -1.79978556343154    2.37780583778847   11.98321331923789
H        -0.77328704367706    2.42236042844667   12.33608154449794
H        -2.44200381035712    2.15038708308132   12.83141063344971
H        -2.07057924841378    3.35898393628182   11.59856432437025
C        -3.45461427918402    1.25259612679708   10.50925793936418
H        -4.04362949703432    0.98686788054915   11.38474185083487
H        -3.80875451596969    2.21494716288250   10.14712855711302
H        -3.63057130774997    0.50058449679576    9.74374194598910
C         2.72627976628907    2.02735192954670    9.16417888266164
C         3.09624537746078    1.72621428198368   10.61952241916462
H         2.76394454308921    0.73307824599098   10.91388326502648
H         4.17857582752776    1.76090671318736   10.72622912003058
H         2.67006871575140    2.46379893340149   11.29631886651585
C         3.26063107031625    3.42289702604957    8.81305730408307
H         3.07295818359765    3.64307447981181    7.76709105987917
H         4.33280642809753    3.46926709173101    8.99283320510094
H         2.77179896467888    4.17913267283333    9.42508018798204
C         3.39644936052436    0.97397415757440    8.27143750636496
H         4.47365902989328    0.98428509596781    8.42412838539215
H         3.19211713653463    1.17828461302697    7.22508652867070
H         3.02052877717272   -0.01853567424644    8.51291631530137
C        -2.46135804681119    2.69075083049102    5.87233081933821
C        -3.15697137605570    1.75949098869560    5.08501781465077
C        -4.50358759069569    1.97028439061309    4.83362253706137
H        -5.05967034356572    1.25208341988248    4.25226041330664
C        -5.15205230297214    3.08653607800482    5.32908715090042
H        -6.20473935779102    3.23106137141966    5.13626940257320
C        -4.44674504668630    4.02508770481731    6.05789855035624
H        -4.95501284397060    4.90819652929319    6.41482163552125
C        -3.09883687231625    3.85356136633408    6.33791846222717
C        -2.44477369992526    0.52336314461050    4.58975281143801
H        -1.37692231640400    0.76036940251161    4.50297196067069
C        -2.59241563841016   -0.60040773817429    5.62015832795929
H        -2.07141856991371   -1.49300237339179    5.28127480219589
H        -2.17173317634585   -0.29827413178062    6.57699715857476
H        -3.64379183010237   -0.84404502525957    5.76491605163572
C        -2.92911320826690    0.06354677728055    3.21589937336986
H        -2.25700802410818   -0.69883943597256    2.82815984880771
H        -3.92713365420853   -0.36566404035268    3.26761672955457
H        -2.94067933032346    0.89753209929466    2.51760684404724
C        -2.33648648660691    4.94205465717499    7.06055996277415
H        -1.28292961057892    4.65399958506271    7.12897937318478
C        -2.86239878803509    5.14887653254542    8.48227080978280
H        -2.30943428163683    5.94874642363222    8.97043718826630
H        -2.73829080449934    4.24080078625575    9.06736378188443
H        -3.91643435718435    5.41653492673984    8.47260464017207
C        -2.40516473210482    6.24819754263788    6.26422133663212
H        -3.42430045614502    6.62307990964476    6.21147078120415
H        -1.78690234366197    7.00773509056775    6.73802546573840
H        -2.03969600993597    6.09559027750270    5.25172773424446
C         1.46821991162913    1.94826298172260    2.67175164258227
C         1.25560118947322    3.37821222186179    2.55152362005539
C         1.68555635778010    4.06714674711625    1.40146169900769
H         1.53863752623531    5.13494378256102    1.38438898302921
C         2.29615802968865    3.39982476092526    0.37237377431812
C         2.46752899707718    2.00126214298370    0.48696240160961
H         2.93397677867399    1.49089226862074   -0.33765423843227
C         2.08909871970232    1.26794561033900    1.58541130503647
C         2.79693345288092    4.09581171322899   -0.88190190028679
C         2.58320249616167    5.61151643743244   -0.83691064345715
H         1.52704777242631    5.85978984216185   -0.76231699617336
H         2.96864116846025    6.05915537818647   -1.75073810295638
H         3.11066193315632    6.05501796583122    0.00429668844010
C         2.04067801869219    3.53865821173857   -2.09678208072388
H         2.37762356549322    4.03317907150667   -3.00536374866057
H         2.20315969416397    2.47049210051344   -2.21025172942032
H         0.97194553859854    3.71069697759017   -1.98624063180243
C         4.30157524532472    3.83333311592919   -1.04045226761944
H         4.68024930090337    4.35240345890829   -1.91841774127686
H         4.51309649653559    2.77423449606524   -1.15608039431592
H         4.83887026381694    4.19533172313637   -0.16647301627981
C         2.31047689459090   -0.23477860570716    1.68410236362121
C         0.95203681144059   -0.92703713217528    1.86233037767397
H         1.08651719001112   -2.00503062961146    1.92440868729309
H         0.30177634506567   -0.70519101401793    1.01772405383212
H         0.47343443471388   -0.58259645565911    2.77339731368679
C         3.20564043426295   -0.52568062030389    2.89643076467396
H         3.36956007599945   -1.59699969803014    2.99239275272539
H         4.17028488792933   -0.03551792056312    2.77850519756408
H         2.74004632286447   -0.16266257221556    3.80735439597334
C         2.98533655271032   -0.81962048524835    0.43988186837695
H         3.96870058196285   -0.38213609109279    0.28176873145896
H         2.37626578915941   -0.66700141629392   -0.44863313655253
H         3.11513834719663   -1.89139430377679    0.57585543143603
C         0.23185519293650    5.28962867161818    3.51059309876470
C        -0.86553882507656    5.60463119035056    2.69106594027459
C        -1.27313384607252    6.92843633045089    2.61305951030577
H        -2.10876644241563    7.19043556179465    1.98164677971209
C        -0.62963937738087    7.91932065172299    3.32970505611115
H        -0.95208231563530    8.94624373169202    3.24206493407807
C         0.41727486095233    7.59115144316701    4.17135880292871
H         0.90179159498035    8.36994464509927    4.73855808567458
C         0.85606855441815    6.28125370113961    4.28384894423486
C        -1.64652506896340    4.53273061814649    1.96355266778183
H        -1.21532563410136    3.55515501941858    2.20040477035657
C        -3.09993612357630    4.52285809986551    2.44559435853805
H        -3.60697655477699    5.44833832299957    2.18417432386712
H        -3.64009398313424    3.69727660512059    1.98701409208018
H        -3.14151394955989    4.39830977784397    3.52485922906074
C        -1.58232009473230    4.72180832753483    0.44672080980872
H        -2.16652824208680    3.94943419933760   -0.04927764402020
H        -0.55436292010372    4.64899031846236    0.09971995813333
H        -1.98028520313994    5.69186424463774    0.15800673969657
C         2.02677820373207    5.91169936681167    5.16324759543830
H         1.91310465227387    4.85917851027412    5.45198378943235
C         2.09702332478793    6.73799427489366    6.44607939545883
H         2.82914786021089    6.30136309217152    7.12184797832506
H         2.39833819991486    7.76338835963864    6.24413974803455
H         1.13125609582654    6.74719818195891    6.94658404217038
C         3.32790471535591    6.04009363801965    4.36505426662602
H         3.46248472582080    7.06583153914614    4.02520471056547
H         4.17834755674652    5.76380856894912    4.98425579607684
H         3.30822926666804    5.38656371920337    3.49543174132534

