93
CSD_code = QOCJEY | q = 0 | S = 0 | Stoichiometry = C51H40CoP | MND = 8
Co        3.09586266070230    5.18997008833916    9.11086656703136
P         2.07691945325985    6.05407763753087   10.84887966518232
C         3.91312144693599    3.42463010521055   10.11806333975822
H         3.99489293421801    3.15385073085853   11.16055216833450
C         2.87036012678754    3.04856062736844    9.23193634353675
H         2.01532122512732    2.43982423022270    9.48095967147298
C         3.24702202261928    3.44140418394872    7.93624273609981
H         2.73304341764941    3.18686594669615    7.02346838755530
C         4.49481343561322    4.11377655807076    8.02342990049238
H         5.09750277320162    4.41291532786345    7.17960936349811
C         4.91878829010155    4.06078039180902    9.37683183394490
H         5.88990588837773    4.34103848708223    9.75155557881652
C         3.09305294256417    6.17386733161026   12.36918218898534
C         2.47847270783431    6.38369807771119   13.60281685261029
H         1.40215161245147    6.47213774186278   13.66003112624160
C         3.24034713631810    6.48391879417922   14.75116637875524
H         2.75594738728181    6.64517618518749   15.70329517896430
C         4.62139121775511    6.38015711054209   14.68372600559844
H         5.21326149307490    6.46022868113649   15.58358848980555
C         5.23684779541381    6.17374751113871   13.46170548931352
H         6.31243025504218    6.09600387265473   13.40089906393893
C         4.47552411041885    6.06726036345756   12.31055811114872
H         4.95611205008806    5.90665518567345   11.35892964886732
C         0.67665247022022    5.11635193611484   11.59213747207855
C         0.95025938453917    3.82668872602696   12.04113386473953
H         1.95109545419989    3.43486258978789   11.94552935820407
C        -0.03903980099851    3.04922708327004   12.61138369491227
H         0.19065530679637    2.04971395626963   12.95101018738770
C        -1.32314807038109    3.55127453357531   12.74621649641912
H        -2.10072843464734    2.94427186997806   13.18543306054825
C        -1.60125810095524    4.83839147815432   12.32060677665337
H        -2.59691150975038    5.24229900799068   12.43296973641460
C        -0.61065395535192    5.61943981291813   11.74974566560374
H        -0.84799467216278    6.62299873841813   11.43017992352616
C         1.36779849775916    7.73228568212789   10.75879462039574
C         1.81909780381512    8.78870432889019   11.54211886747495
H         2.61055963529774    8.63380153096462   12.26092105570739
C         1.25122560278807   10.04464208782094   11.41123373474680
H         1.61273588140363   10.85931335049530   12.02169721454011
C         0.22795916553388   10.26013820201652   10.50449533159463
H        -0.20812739033142   11.24284250049048   10.40335002619060
C        -0.23359188472897    9.21026805209672    9.72682124033135
H        -1.03309814317022    9.36964123052486    9.01755656006408
C         0.33377449784864    7.95588499324659    9.85262537667158
H        -0.01683582093563    7.13484189659317    9.24675794811916
C         1.71321967923603    5.81108163622149    7.89203054059338
C         0.65437625237615    4.92453449446858    7.42665555366867
C        -0.25018835455723    4.32057651081930    8.30093224119999
H        -0.17052994679599    4.51404650669612    9.36069969175861
C        -1.24562228852823    3.48639949522358    7.83033563930308
H        -1.93835388395204    3.03558885359436    8.52757771604383
C        -1.35531124705248    3.22572640649130    6.47478893832472
H        -2.13127831049366    2.57043877426334    6.10688600859071
C        -0.45647598343100    3.80724608248335    5.59364683942065
H        -0.53098843508901    3.60330839609262    4.53481341824508
C         0.53754076964158    4.64274681197697    6.05973838005159
H         1.24004852264578    5.08812868297690    5.37040141600658
C         1.95413100606006    7.02772954282534    7.35529004326300
C         1.13812654347873    7.64891961363104    6.29901642378127
C        -0.25377771351540    7.66117071229840    6.34868512653706
H        -0.76616423128247    7.20423575237541    7.18174948809148
C        -0.99151041825257    8.24942626457965    5.33892712311292
H        -2.07094466012978    8.25225664170144    5.39689162891875
C        -0.35529086606139    8.83238179544989    4.25625522495380
H        -0.93343352340910    9.29358421899935    3.46880986756790
C         1.02740742114695    8.81258303806712    4.18751312504424
H         1.53337227761222    9.25470076988436    3.34112972693183
C         1.76695202503587    8.22684982409621    5.19693813647785
H         2.84414807739829    8.20256091915898    5.12654930883478
C         3.14702217200593    7.68452381709815    7.87157607424978
C         3.50177484947210    9.06128653047538    7.48634037824798
C         2.54662770079498   10.07114460545589    7.57150666365734
H         1.55152630534904    9.83113412964475    7.91473646761361
C         2.86770464591479   11.37175149066714    7.23355195563879
H         2.11662778764627   12.14536501347128    7.30831779176710
C         4.14463056112922   11.68531260147456    6.79904646193299
H         4.39394576732695   12.70218709694335    6.53244128896067
C         5.09935434500450   10.68696144498998    6.70492531024355
H         6.09642396358327   10.92320006430022    6.36126039504077
C         4.78172018327987    9.38571564571470    7.04596924826287
H         5.52682567282030    8.60889452940059    6.95957247365113
C         3.87224020682640    6.94489328470033    8.73660264672676
C         5.08134037575125    7.48066542380081    9.36594395196735
C         4.97833025445380    8.56977439191404   10.23507096902913
H         4.00571263684378    9.00346916826300   10.40923108857346
C         6.09686962594517    9.09747386591966   10.84807652572667
H         5.99284051854407    9.93695638168115   11.52090266426408
C         7.34946490019919    8.56123762617900   10.59869169236462
H         8.22457596157672    8.97097214336116   11.08169054386586
C         7.47329047245093    7.50793513703004    9.70815412732101
H         8.45047624968150    7.10259024051596    9.48439340680098
C         6.35433567297975    6.97418920075105    9.09781161496195
H         6.46726815871500    6.17121566394045    8.38481235012149

