109
CSD_code = QOCKUP | q = 0 | S = 0 | Stoichiometry = C44H58CoN3O3 | MND = 5
Co       15.72352611999332   -5.58797281718411   -3.65679594629402
O        14.14465725360915   -4.80193417068131   -3.26998807431228
N        16.46196248720288   -3.95901322543377   -3.27255439828566
C        14.20991120043477   -3.51391017317439   -3.08603039008003
O        17.34231936410836   -6.41998407528267   -3.60418970296325
N        15.02772112679816   -7.28385529224507   -3.41468491156349
C        15.53663558287789   -2.99649526790883   -3.05798271515420
O        15.13373558679564   -4.46651790721863   -5.82990199246883
N        15.56923258579797   -5.48302716022622   -5.37462764121519
C        15.77589321034941   -1.64130375672476   -2.80800989895106
H        16.79650177231001   -1.29000650009522   -2.79817617170551
C        14.70861691397616   -0.79293540809990   -2.60823899875475
C        13.40371287480255   -1.31869182956180   -2.65055863920370
H        12.58288320105519   -0.64173929616164   -2.50156386775392
C        13.11388620787320   -2.64872804197310   -2.87588991508406
C        14.98012269656593    0.68229360947693   -2.34768304673589
C        13.70364967051505    1.50425804625633   -2.14942759441324
H        13.07251374779446    1.46825430615340   -3.03414850775211
H        13.96971234603303    2.54425882489506   -1.97070360910971
H        13.13798582265452    1.15189749495972   -1.28996796811959
C        15.74261789954984    1.26856589408193   -3.54429712681819
H        15.15691501134609    1.15419154604306   -4.45377578869635
H        16.69670386491108    0.76992065735563   -3.68896247499038
H        15.93218038735960    2.32808459063990   -3.38553601847887
C        15.83250801637137    0.81137830407094   -1.07650347158574
H        16.03124237677806    1.85944273469113   -0.86286565707166
H        16.78470594894339    0.29948130348973   -1.18482380947630
H        15.30677813811350    0.38027292031382   -0.22683571556344
C        11.70169224776240   -3.20790445361693   -2.91167576938999
C        11.55598675530579   -4.23120770990049   -1.77711279636547
H        11.73212264812770   -3.75741429446088   -0.81279088536744
H        10.55363690965021   -4.65388558702047   -1.77972802595096
H        12.26647143328724   -5.04138723247069   -1.90729672687678
C        11.47499732366152   -3.90449098490425   -4.25990838730768
H        11.60652971461906   -3.19872254019254   -5.07759036324905
H        10.46675665518064   -4.31058422980984   -4.30579599656926
H        12.17933001660580   -4.72058449246124   -4.38873379410837
C        10.63256661392566   -2.12653864106601   -2.73707981150777
H        10.69429598631306   -1.38343817562803   -3.52892567866594
H        10.72479322743794   -1.63148381722441   -1.77279926068730
H         9.64791533115186   -2.58710212803062   -2.78393117931469
C        17.81763341698353   -3.65808053417205   -3.03932981512145
C        18.69627833627625   -3.46620757289799   -4.11169858951937
C        20.02783411008485   -3.18739377880993   -3.83962786029510
H        20.71114593034065   -3.03813046282553   -4.66298939901176
C        20.48682292359043   -3.09756854747605   -2.53888085979910
H        21.52636489760106   -2.87948005052456   -2.34444865084645
C        19.61234236725721   -3.29326036444051   -1.48507930429910
H        19.97041941652444   -3.23237568987134   -0.46749369162831
C        18.27566435169783   -3.57638805279041   -1.71653470997758
C        18.20694351273561   -3.56338816966049   -5.52099393013857
H        18.96618144966299   -3.21685909875282   -6.21759520697501
H        17.29873439154164   -2.97813223898897   -5.66177103149860
H        17.96448628031773   -4.60089339325927   -5.75609840414823
C        17.33313035803242   -3.82311200432656   -0.57708944637413
H        16.77877485988452   -4.74973239586560   -0.74230181901185
H        17.87796998160369   -3.90472421800031    0.36018539115948
H        16.60747833620761   -3.01324793559998   -0.48985569389082
C        17.29240590930934   -7.70664641608441   -3.39421256377246
C        15.97560998320421   -8.23459561846727   -3.27122115485196
C        15.75804249542001   -9.59515870541388   -3.01060587566207
H        14.74117794247437   -9.94341968467259   -2.93360191394685
C        16.84059789748055  -10.43384410746506   -2.88392431242533
C        18.13788952809573   -9.89386988059832   -3.00062155116266
H        18.96798059543686  -10.57049280791044   -2.89365544878601
C        18.40600327714345   -8.56348873840822   -3.24198492961863
C        16.69558702485723  -11.92498594387109   -2.62198345864904
C        17.39052972125509  -12.27571178531189   -1.29853609395669
H        16.94606665799746  -11.71280106940115   -0.48045491264173
H        18.45174607701943  -12.04662899433412   -1.33242452462587
H        17.27858687405400  -13.33716986280542   -1.08789267223007
C        17.34665622186083  -12.70326571102022   -3.77412219636147
H        18.40840684395489  -12.48740411252637   -3.85049975736058
H        16.87613830610615  -12.43770383465489   -4.71825538502773
H        17.22750405907439  -13.77322235260073   -3.61714187809506
C        15.23140823953017  -12.36152844788083   -2.52063139602507
H        14.72709178090708  -11.85429110968486   -1.70151735081382
H        14.69782717318956  -12.15815516097879   -3.44590068729114
H        15.18433095593724  -13.43234177870590   -2.33313559903894
C        19.81199305570543   -7.99650793450283   -3.34799007793266
C        19.97392996519763   -7.32014865053029   -4.71500557639486
H        19.24422714909202   -6.52487147204591   -4.82677328970816
H        20.96997616425287   -6.89214704003812   -4.80537892745089
H        19.83009159217294   -8.04383654347921   -5.51498912482196
C        19.99972806208775   -6.95491316496320   -2.23663013927060
H        20.99567529648706   -6.52081519508901   -2.29146957933270
H        19.87472003600681   -7.41672450444901   -1.25878232835803
H        19.27398557715160   -6.15485114609302   -2.34274734605544
C        20.89634901574512   -9.06716113955309   -3.20318560863430
H        20.84800837769432   -9.54821532941557   -2.22869325808909
H        21.87435650083169   -8.59993768697286   -3.29747806624710
H        20.80856237440526   -9.82247000973478   -3.98102037401432
C        13.68422028074881   -7.60804864643846   -3.14947634579188
C        13.22973594743449   -7.64060732085862   -1.82472446636345
C        11.89400888241859   -7.91900278986368   -1.58017549775730
H        11.53599837923647   -7.93635228951833   -0.56078355561809
C        11.01983128159243   -8.16318482023787   -2.62392109379731
H         9.98047652773979   -8.37298394765646   -2.41952121939281
C        11.47878569163354   -8.13817639842844   -3.92810675913475
H        10.79639045691706   -8.33260554577329   -4.74285773145145
C        12.80882918950570   -7.86571573058108   -4.21072794681823
C        14.17737497441479   -7.34748739834139   -0.70092649196060
H        14.94201888426330   -8.12193279561812   -0.62759005263383
H        13.64650206821498   -7.28797059529145    0.24604096907558
H        14.68458127834187   -6.39615880919530   -0.87898071416902
C        13.31995088956720   -7.86631844040603   -5.61630548801190
H        14.11683455644470   -8.60069949722509   -5.73140211480345
H        12.52165984130235   -8.09475106633525   -6.31800488762224
H        13.74327894077711   -6.89294448395840   -5.86297349574687

