145
CSD_code = QOCLAY | q = 0 | S = 0 | Stoichiometry = C74H66N4Zn | MND = 4
Zn        5.92256136895791   11.29942670658551   10.64299904064533
N         5.57341140504267   13.16951057050538   10.94253557762008
N         4.45910220865556   10.17357644847204   10.08786618993848
N         6.75833984039480   10.97986061683279   12.35014937843771
N         6.97527089574945   11.05888070949764    9.04782829928348
C         5.38530922522248    9.59456941278325    7.89181954469991
C         3.36935966090276    9.85799314339426   10.80083894418176
C         7.49319077313601   11.28525941332389   14.48840967733072
C         6.55929344461880   10.35455239275085    7.93178627755658
C         5.97431846563445   13.87503528498985   12.06325179069953
C         4.40468479386977    9.49217977688990    8.89242670822357
C         3.20167428118302    8.70336867893529    8.87774308391259
C         4.34130454823099    9.29420325147245    5.64348959338898
C         5.06745448724032   14.03490300081197   10.07177217685008
C         1.88191916369592   10.63241393769230   14.23958986383920
C         5.78581125763710    7.54774103705881    6.53713473042029
C         6.55113036462846   13.27507654173110   13.18798305049760
C         2.86485640061002   10.53658785968316   15.23418384876227
C         2.09477644345982   10.13800298394588   12.88221325743275
H         1.29126547398931    9.53694198371564   12.47539673106879
C         7.52746083709890   10.55492683105203    6.88935852133093
C         6.65081107168950    7.03231667518645    7.53725843358304
H         6.82816664671804    7.62009234787821    8.42520036270216
C         6.91236949474377   11.92583831498893   13.33874730659819
C         2.67884091554218    7.76167281258373    7.84884408079659
H         2.37399647544719    8.28867341828356    6.94559412885815
H         1.80959032050913    7.24483541823781    8.25196516761196
H         3.42487171611592    7.01971720057307    7.56940029782224
C         5.16122961613645    8.79636223775292    6.66347958616497
C         3.72531834380944   10.56983732526792    5.73205238771492
H         3.90194312824595   11.16502974019071    6.61574697612230
C         5.68949960823004   15.26583948467643   11.84218564697747
C         7.20993086797534    9.80757646853940   12.81638805215937
C         4.54058526162319   13.60257986061752    8.75112721207370
H         5.36454804787737   13.39472094600239    8.06667440664755
H         3.91668225954819   14.38028622367293    8.31703588427225
H         3.95776179859676   12.68924026616721    8.86233954209990
C         8.12070713665948   11.66091101333048    8.74992300533103
C         8.49289695224877   11.37938026551334    7.42476454294748
H         9.37216079172157   11.74405639523822    6.92811087776592
C         5.12640870478085   15.34062767937248   10.58691962417082
H         4.79029024527639   16.22898016626650   10.08632664276968
C         7.13551624600523    8.61894218925226   12.01987738065332
H         6.68867179980048    8.75100458143562   11.04224726937603
C         2.56832698600266    8.95116546910105   10.07187194339143
H         1.64004805543179    8.52252976536558   10.39688467644855
C         6.78949877147144   14.15854810856344   14.35375725442374
C         7.55293925972427   10.04874472547386    5.48945270554753
H         7.66702350906848    8.96581186776457    5.46073034428712
H         8.39577056638331   10.49595724861459    4.96548378670228
H         6.63853900300246   10.30364335535909    4.95609141331389
C         7.67816619799037    9.96891538267538   14.13927237637491
H         8.09033926777059    9.20006047752314   14.76382844630774
C         5.94212013616828   16.44933280268758   12.70936955906041
H         5.34172982563003   16.41204989659106   13.61742981894463
H         5.67983614990214   17.35294067293865   12.16206946049210
H         6.98893488080720   16.51317147829108   13.00216986535206
C         5.55921563648590    6.76615171054592    5.36110165245098
C         8.84154969678168   12.50845953094192    9.73511820891888
H         9.87324493669982   12.65833994631467    9.42577769411782
H         8.82134078596436   12.03925635803194   10.71760353497151
H         8.35810516554108   13.48311933861090    9.81770397378681
C         3.16710298689905   10.38785116800222   12.11653725528092
H         3.95499340809236   11.03871449918560   12.47469289848120
C         8.05460433200362   14.72142769981185   14.56141944960663
C         7.82931478099721   11.83683571054282   15.83064437193944
H         8.65782495199767   12.54180892686793   15.77518053832798
H         8.12114413804365   11.01826648184528   16.48640332981834
H         6.97936956944395   12.35163633925306   16.27547004659579
C         4.11962861140255    8.50691437236503    4.47096088692634
C         4.42867934340385   13.90287595274892   15.02894116948103
H         4.25014103407429   13.27338715809578   14.17032079439224
C         3.41149660939905   14.20098086850639   15.88255945537517
H         2.42229964740248   13.80865487300640   15.70465336560554
C         2.93303995937440   11.03453908126592    4.72780926130915
H         2.46907217832699   12.00696284084171    4.80446402820855
C         9.13323167668478   14.49174425273350   13.66787390952809
H         8.96124960743316   13.86311177548846   12.80664998941405
C         5.73144117856230   14.42745078069680   15.23333021162350
C         4.72659491874368    7.25970648731225    4.36087931899134
H         4.55461028941301    6.66448051911713    3.47476016495865
C         7.03662106950124    5.05529747752219    6.22192248267602
H         7.53250146458636    4.10088302170953    6.11957747042892
C        10.35439867028511   15.05057622189794   13.88829888307087
H        11.16911614182442   14.86957903148209   13.20260126747963
C         7.26745748594251    5.82953881974531    7.37812860513036
H         7.93544164451570    5.45839276641645    8.13991618577311
C         2.70805601648183   10.25461173618601    3.57352662992975
H         2.07458765322918   10.64420297472475    2.79007487693510
C         3.28465013507133    9.02832328371072    3.44951311051280
H         3.11971517546187    8.42635753510585    2.56714788549049
C         5.95924432008065   15.26641845337344   16.36892789533296
C         6.20340931333871    5.50762687848263    5.24553343046193
H         6.02154904603790    4.92078507967813    4.35616018316341
C         8.27380206885796   15.56110686455844   15.69752295323794
C         9.56243710457792   16.12212675106277   15.89007850019298
H         9.72093355290124   16.75498498785199   16.75175860663239
C         7.22465978786695   15.80718812283517   16.57771385902046
H         7.39382944618023   16.43952714756366   17.43832124388339
C         3.63976173727031   15.01843605728352   17.00905785302608
H         2.81913487103695   15.23404793392462   17.67768195782611
C        10.57288790305750   15.87422084525433   15.01310335073752
H        11.55078145233450   16.30644441489968   15.16720611698805
C         7.47253386005484    6.18013877260042   11.62827714236874
C         1.35982748913338   11.56146067105944   16.83715047428214
C         2.58491978054272   11.00124845964680   16.51102659920024
H         3.34825465293660   10.92463325916223   17.27302214718207
C         7.34609869235868    3.76365127823479   10.20438840389710
C         7.57970925256509    7.41310376395251   12.40340556457346
H         8.08343979207656    7.32103079461862   13.35751445564512
C         6.23001130331182    4.57611154924389   10.33492562568814
H         5.29963038283307    4.26854680486447    9.87771128146477
C         0.39029369743487   11.64161416909771   15.84715337845123
H        -0.57326124349152   12.07347375812152   16.08176931970234
C         0.63105840042872   11.18180733565796   14.56390845632584
C         6.26984660854395    5.77372378312362   11.03306689865228
C         8.60352531135637    5.35601634554517   11.51790213417300
C         4.87751472699403   15.53161543263103   17.24746901626766
H         5.06074751557177   16.15999596061311   18.10773817210251
C        -0.43699278845921   11.30072662327962   13.51689316230315
H        -0.04901749055011   11.78853759554542   12.62396933963320
H        -1.27985701050307   11.87590833481959   13.89260518938033
H        -0.80079539597543   10.31415980036257   13.22777069739004
C         8.52784745597319    4.17023663262969   10.80679332173983
H         9.40939170096553    3.54950243849733   10.72011412784127
C         4.20572332953140    9.91609402352919   14.98421206322285
H         4.17019528101264    9.19283585900879   14.17330291501745
H         4.56322692241220    9.42037046189539   15.88473198363607
H         4.93387603062252   10.68250986977912   14.72231897379350
C         1.09041213444599   12.04913530167480   18.22833780493950
H         0.82639213539913   11.21073171523334   18.87399638551663
H         0.26554419612909   12.75795363803090   18.24056786516300
H         1.97531375488461   12.52638408878880   18.64492874942744
C         7.26204555527492    2.47859135159908    9.43760635258011
H         6.64260540054956    1.76042494171151    9.97381046088331
H         8.24745967237689    2.04235437569107    9.29610974344314
H         6.80643675170407    2.64661942040266    8.46339410413132
C         5.00436976656974    6.56733680473938   11.15239027376126
H         4.99447364609274    7.17623141311257   12.05305772418234
H         4.14393106196365    5.90107474164621   11.16659395909364
H         4.89029051827315    7.22951280381161   10.29536024340796
C         9.90330170211209    5.76701228687386   12.14451375762661
H        10.16695347201525    6.78310554005215   11.85522382786718
H        10.70404965894296    5.09690701476443   11.84086021040475
H         9.82943542377066    5.73721484870260   13.23218208568743

