83
CSD_code = QOCQAB | q = 0 | S = 0 | Stoichiometry = C34H42Cl2O2P2Pt | MND = 4
Pt        0.63145750964453    6.15284026905227    3.76621208267127
Cl        1.18095526641864    3.96612919642864    3.50423822957173
Cl        2.83586339805990    6.65513891661790    3.78570566958516
P        -0.07720402595005    8.34443205329397    4.00939956378151
P        -1.61599583963629    5.71331708262843    3.89928668549131
O        -0.58231454196910    9.06670080504842    2.67817654272973
O        -2.23519991233689    6.06305385504622    2.45218266755881
C        -0.79968087215203    8.39852698548283    1.43016741779106
H        -0.63704298133965    7.31986305326271    1.56475912111733
C        -3.49075726210504    6.67755056292547    2.13900616326280
H        -4.20614180774830    6.48598498328981    2.95171817487485
C        -2.24998877800332    8.65436875226886    1.00577756038393
H        -2.42064726655762    8.16436755404560    0.04793858616676
H        -2.37504619271918    9.72990672678323    0.86967133777125
C        -3.28569677075417    8.19328094270632    2.03622601493204
H        -2.97657492234127    8.55646122535393    3.01945837348932
H        -4.24839527026244    8.65229013733790    1.81016675749904
C         0.23333768721017    8.87999838808275    0.39659888829082
H        -0.07794072298827    8.47539795576673   -0.57298989090636
C        -4.01261672696178    5.99348441452590    0.86304234999577
H        -3.18759751356851    5.96063105748832    0.14561974969909
C        -1.46423427427449    8.14015771201217    5.19660989279261
C        -1.19615850096096    8.90055839060181    6.30116704678790
C        -0.15000045028161    9.89040109715182    6.10114558018827
C         0.50553284272585    9.79758884909036    4.91588528241970
C        -2.28748858763037    6.99133378531313    5.03092822252432
C        -3.49708046433386    6.58511201188661    5.50175736556843
C        -3.79535003244491    5.17948635393470    5.22577869476174
C        -2.82805059360515    4.50066553708373    4.55241219219775
C         0.30198468019919   10.40286358132191    0.30827952851418
H         0.52402345693492   10.82285051193384    1.28614546679840
H        -0.63388554071923   10.82348076797790   -0.05093180146651
H         1.09210506451834   10.69565072910568   -0.37820742094408
C         1.60426355045227    8.31324775986104    0.75371100647979
H         2.32182608381586    8.51714968084142   -0.03671141364168
H         1.55508127319565    7.23334435192455    0.90342332160039
H         1.96962459898188    8.76813254455049    1.67108109501449
C        -5.19232466560654    6.74308871167318    0.24702205361316
H        -5.97686288868549    6.89082690098338    0.98626959030389
H        -5.60380720461379    6.15747429587064   -0.57132349887167
H        -4.89565357024783    7.70992972637227   -0.14840754468162
C        -4.42972855220570    4.55923304365293    1.18544097843029
H        -3.60947354557902    4.00795935298344    1.63578790278523
H        -4.73025110683233    4.04200227755314    0.27779233515974
H        -5.27003712385658    4.55570799566009    1.87766858458738
C        -1.83183586927402    8.72965510422260    7.64011854778084
H        -2.33023753869915    7.76716322234224    7.70144488377149
H        -2.55629669509506    9.52026795637277    7.83843543633596
H        -1.07280308448677    8.77629281957351    8.41890494945479
C         0.16503892835626   10.89073503748657    7.16412262407938
H         1.00832791430355   11.50879293491723    6.86996511028595
H         0.41930188727556   10.38260364565717    8.09373064368852
H        -0.69606671176272   11.52967104254001    7.35911328576867
C         1.50580473599272   10.68426858960526    4.34849996281520
C         2.65475886530144   10.14764229369324    3.76939913249853
H         2.81515299087973    9.07810728432285    3.81013879467581
C         3.59511840435558   10.97768166698333    3.18874435093110
H         4.48363953606196   10.54957478899200    2.74942851225094
C         3.39720328264459   12.34886104689417    3.16516184064529
H         4.12962014335463   12.99592151295047    2.70547226624371
C         2.25215031659510   12.88884182846935    3.72861305634279
H         2.08964833937014   13.95688781616267    3.70438709991440
C         1.31085802832526   12.06606605687933    4.31771701594860
H         0.40526061842183   12.48684966294801    4.72992243997793
C        -4.49361677903202    7.45650047023740    6.19712976230246
H        -4.13287367232306    8.47897814741769    6.24583176992838
H        -4.70271732391190    7.09859010801210    7.20479027720551
H        -5.43483830568362    7.45631498608134    5.64544080527179
C        -5.08593883091797    4.58813620237419    5.69473656686276
H        -5.31990818951191    3.68706800292734    5.13382359680457
H        -5.90074640544738    5.29843444762527    5.56752069415236
H        -5.02962732287189    4.33609660652022    6.75417085752384
C        -2.69196858748632    3.10194578526342    4.21487340918827
C        -1.91151897255745    2.76583755370379    3.10357804993903
H        -1.43252905867565    3.55768974361052    2.53986233765609
C        -1.72677741887308    1.44960295054894    2.73747462446763
H        -1.11866202854440    1.21315790019630    1.87783733431132
C        -2.30349959960070    0.43463586633880    3.48557841782729
H        -2.15615112974005   -0.59763111436504    3.20537787716307
C        -3.04438288948502    0.74986882774643    4.61237982404996
H        -3.46657134639941   -0.03906691515282    5.21808796025076
C        -3.23784360462868    2.06806902787510    4.98040648637573
H        -3.77269952911128    2.29021620521043    5.88989288864481

