60
CSD_code = QOCSIK | q = 1 | S = 0 | Stoichiometry = C26H27Cl3N3Ni(1+) | MND = 4
Ni       -1.33561144100639    7.72682626429322    9.77471026894702
Cl       -3.83807223888329   11.41424712047956    6.67695187530826
Cl        2.13326347375236    4.91961801349479   13.10364421729764
Cl       -2.75184988103379    6.19036075286617   11.14699690963512
N        -2.56398776277313    9.17278979359830   10.22182923254167
N        -0.43365785772999    7.86934944478618   11.70860934194344
N        -0.12450999042788    6.31913807401524    9.16012025792216
C        -1.54496691812504    8.35329132112012    7.96790812533374
C        -0.96316099473596    7.94277950372688    6.77704755851928
H        -0.26625196818044    7.11798217615380    6.74233123563359
C        -1.26335680539311    8.59150844576807    5.58306542325172
H        -0.79475706476219    8.25558792579164    4.67028166776760
C        -2.14699519781844    9.65368136740240    5.54019932881571
H        -2.37422236615898   10.14453201559337    4.60755103697472
C        -2.73873829023264   10.08577743943512    6.71441992886527
C        -2.44114617406358    9.44933141317268    7.92423184015930
C        -2.98594930992899    9.81750825340647    9.19695262662441
H        -3.73066474221829   10.60594825648680    9.28331862782346
C        -3.09936557074720    9.53278493163750   11.51630654075674
H        -3.23071865785897    8.63482496480288   12.12421730197366
H        -4.08234210690574    9.99995085376747   11.37739411000513
C        -2.19290091102693   10.51851774495994   12.26867285712777
H        -2.81072832719298   11.04939805498499   12.99439030398130
H        -1.80206231306146   11.25506118328372   11.56292016973954
C        -1.04038312723852    9.86501063731570   13.02466255492357
H        -0.52697504523278   10.64199849288841   13.59309028954370
H        -1.43074319755788    9.13493865637428   13.73806747993406
C         0.00400782423989    9.18433561134902   12.12671053218789
H         0.94457361258558    9.10754690130748   12.69013135944417
H         0.16377166930558    9.80485746511087   11.24083051889323
C        -0.00081323909157    6.88185876955015   12.38082877043785
H         0.72266472702872    7.04907754867227   13.18596810756966
C        -0.36662317853417    5.48324044669574   12.20845519445922
C         0.54238458775588    4.48548274268322   12.59852922459005
C         0.21322943220559    3.14173409758765   12.55246658322502
H         0.93734405468410    2.40428970228113   12.85907936044303
C        -1.04687562051008    2.75887591256908   12.12800348143444
H        -1.31568758818101    1.71482044485390   12.11457178093194
C        -1.95931594038597    3.71172607797301   11.71119399748191
H        -2.94075492742076    3.42031718847510   11.37248610636409
C        -1.61229735211902    5.05270530585553   11.73051039921627
C        -0.60001763680111    5.10470815567102    8.84768626424698
C         0.19823620478145    3.97454106860453    8.94234818534556
H        -0.22552467006132    3.01137397323747    8.70549475019535
C         1.52736750364843    4.08047107711805    9.33076410420789
C         2.02575195157586    5.36548540840840    9.51269958441310
H         3.06978965875331    5.51982278892673    9.73540936351027
C         1.18645625306524    6.46177057915816    9.40623587695685
C        -1.99386252053566    4.98453030933187    8.31795040610679
H        -2.50538798840881    5.95026080840625    8.33994998857079
H        -2.56816287305722    4.24961717914401    8.87673775763546
H        -1.94749266414709    4.64753399325406    7.28253210003276
C         2.39904277005869    2.88284088747881    9.48245874954111
H         1.80752877650732    1.98836610736599    9.65695623522180
H         3.10191779574889    3.01939076027107   10.30055215665240
H         2.97876168480862    2.73358558406928    8.57148428469554
C         1.73920963333500    7.84770833103268    9.49674036322426
H         0.93770353927146    8.57850031917589    9.34509364500630
H         2.48572209148248    7.98747149951342    8.71587469379173
H         2.22670721494448    8.02030985320785   10.45357496261687

