54
CSD_code = QOCSUW | q = 1 | S = 0 | Stoichiometry = C24H23Cl3N3Ni(1+) | MND = 4
Ni        0.77514794286367    2.90557655264256    3.53458265296650
Cl       -2.59679577633393    6.66264137582618    5.74304217606044
Cl        2.04011750261102    3.91442663522545    5.50053590498109
Cl        2.97782711524623   -1.75839922238928    1.82485807533343
N         0.67834833160484    1.12835296568609    4.20096546238416
N        -0.69418537276593    3.14283233651652    5.04399037398029
N         0.58492583863387    4.63535031831279    2.63840391244187
C         1.73085879837935    2.07502528001837    2.08611599845589
C         2.19990232461835    2.58330652521804    0.88517354698633
C         2.90579532456927    1.77195220481929   -0.00041478142540
C         3.16610898894959    0.44542044991718    0.28518941623868
C         2.68515756093241   -0.09825722583932    1.46512816862170
C         1.95965622425876    0.69720666903472    2.35642633616687
C         1.30673072397095    0.22708898001170    3.54496849452922
C        -0.14990674993631    0.84851012610159    5.34626682233588
C        -1.30779016604813    1.86156065701356    5.30184485766615
C        -0.97444463400843    4.14450712397394    5.76176478862550
C        -0.22149777123993    5.39439011228078    5.71287761632507
C        -0.87425007308903    6.62772829679438    5.80484019504449
C        -0.16532011905939    7.81301589991067    5.90529272154575
C         1.21732652857472    7.77495793877422    5.94880756574329
C         1.89302403458288    6.57060887296105    5.84348989416993
C         1.17959756094591    5.39318255255438    5.69412996775182
C        -0.69084752763659    4.95525164282305    2.36664141202091
C        -1.09657037851333    6.27151942393715    2.22969911445603
C        -0.17271564153880    7.30449234129686    2.34100249283366
C         1.15613047696957    6.93937053081839    2.50752452317951
C         1.51091264714451    5.60513619850435    2.64392040466131
C        -1.66889615405074    3.84029521820877    2.16482109343794
C        -0.58709666435040    8.73053035112602    2.23171574231925
C         2.95741981279940    5.23915531316900    2.75014036053413
H         2.02124935385298    3.61000409853068    0.60170947802397
H         3.25723929197095    2.19170349278427   -0.93092327093646
H         3.72402186752477   -0.16787941215402   -0.40404194111194
H         1.30230040434589   -0.82058113127495    3.83492181101552
H         0.43281689750929    1.00571235495243    6.26286334565929
H        -0.52098603836572   -0.18195755374112    5.33924987027801
H        -1.88863118916415    1.85515722331273    6.23214803752987
H        -1.96626749137654    1.60832836145613    4.46395299023297
H        -1.76947200982854    4.10435887267210    6.51332988813666
H        -0.69373007811641    8.75038675266639    5.96808367585230
H         1.77419113070940    8.69161073971315    6.06010906719146
H         2.97011353874079    6.54283565841246    5.87997200895904
H        -2.13540409899469    6.48690719124674    2.03476128459624
H         1.92840864500705    7.69194288560098    2.53301423234045
H        -1.15716547683450    2.87121023481204    2.25006752449538
H        -2.10174732953063    3.91353095187923    1.16808544306450
H        -2.48338599381529    3.89886924236301    2.88452553933366
H        -1.55560144775486    8.88775941993178    2.69982803051373
H        -0.68020418036711    9.00510440307011    1.18091238922383
H         0.14804337076944    9.38742169619851    2.68826480631533
H         3.08083926091442    4.16986274728056    2.92353516261987
H         3.44235052722846    5.79816494737741    3.54627103072434
H         3.45975033648768    5.49801037768209    1.81851428557023

