26
CSD_code = QOCTUX | q = -1 | S = 0 | Stoichiometry = C6H10NNiO8(1-) | MND = 6
Ni        1.57779920024315    1.94353891508044   -0.58096593241200
O         1.56695939036188    0.28064516506191   -2.07940060999045
O        -0.62995801097459    2.00750346123149   -1.71393937694326
O         0.64489642049428    1.09039444429151    0.75817856190906
O         0.68892259697047    0.45680355847382    2.87385108241578
O         0.65473354013286    3.81886224399830   -0.05928840986151
O         0.80448453204298    5.46943213027980    1.42402893092463
O         2.84230452948513    2.70841742920799   -1.71027168880953
O         4.95718800104190    3.34087767789667   -1.84506905265219
N         2.91166540708574    2.54086553720280    0.97102367102827
C         2.65801478040808    1.53469351989185    2.00561003111558
C         1.19851290393713    0.98771113048678    1.90209553498023
C         2.59378721066231    3.89278395367588    1.39497402964130
C         1.19781054063960    4.45144379172831    0.87863201062347
C         4.19307431087825    2.45943843476719    0.26486096991136
C         4.00430763207640    2.90179207592635   -1.22339322863688
H         2.83256673142501    1.92303221514707    3.01769556249083
H         3.31259400113026    0.67006275253595    1.85259424636286
H         3.32840285282173    4.59519249675524    0.99171744372137
H         2.57839440963368    3.98274449141080    2.48598043758689
H         4.97911657953727    3.06082557219032    0.74291431866251
H         4.52974217666361    1.41717459327505    0.22681871316453
H         2.12351084358331    0.77845378514093   -2.69341892793444
H         0.64901368497500    0.49197971360702   -2.31315191446351
H        -0.94719066159490    1.66503880755737   -0.86721336490512
H        -0.48885360366061    2.95399210317892   -1.55386303792865

