53
CSD_code = QOCTEI | q = 0 | S = 0 | Stoichiometry = C20H24O8Ti | MND = 12
Ti        5.65693647935499    0.72464398980493   19.97601164743618
O         4.21856152409051    0.43245379639917   18.82271592649380
O         2.96605638147733   -0.32468139728112   20.45577324197223
O         6.45614051587349    1.40904515718045   18.47438252360157
O         8.50587642927840    1.79758484517592   19.18016093571976
C         9.46432142012661    1.72017169138761   16.49915539971087
H        10.10747304328496    2.18781010698510   17.24028707935465
H         9.73133021811168    2.08162904659018   15.50886943137656
H         9.61731317171455    0.64458786461745   16.53949679428905
C         5.44128374592964   -1.56816748120198   20.78618540340733
H         4.54459827812258   -2.05491688334802   21.14173612017258
O         7.16116823952730   -0.07465097622523   16.25796807177432
O         6.30293300512190    1.64919243369314   15.13937566751212
C         7.20855936698526   -0.99480509718671   19.45799543017118
H         7.89484092022491   -0.97399445032993   18.62221561962724
C         2.16123311883034    0.81789490228245   17.09090460814688
H         1.38203650444322    0.66319829130783   16.34751264408251
H         3.13346031198336    0.64134548804262   16.63535838197645
H         2.12823530291296    1.85003694340229   17.43314931451419
C         4.10404992100424    2.33150563388893   20.84001136498328
H         3.04188333432077    2.34764248719292   20.63491797703292
C         6.38061473841656   -0.89250948411701   21.58268268850259
H         6.34377426244861   -0.81311183918966   22.66145874271324
C         3.10890612246322   -0.00418441801364   19.28403296473156
C         7.68428848506562    1.73327284780816   18.28548337297717
C         8.00927969322113    2.06763701935621   16.81598890605014
C         1.96049132567636   -0.14024470773604   18.26930259675624
C         1.91332095226624   -1.59830312622015   17.80564308189965
H         1.04562268984499   -1.75331296681512   17.16877369367893
H         1.83105745878825   -2.26003176472311   18.66464958179808
H         2.81658227834034   -1.84003984797254   17.25024647791729
C         4.72937120852532    1.64189481856223   21.89860681717463
H         4.21402602289849    1.06575449994426   22.65618297565754
C         7.05995555126315    1.23311712318074   15.97119748286675
C         6.31197983511924    2.90879549645166   20.84405229618721
H         7.23586479865568    3.43052993542473   20.63696965172513
C         6.09890806936238    2.00953905196715   21.90417766452295
H         6.81803349251436    1.78083262630816   22.68047586913008
O         0.76362958634695    1.41089161390524   19.59451846062274
O        -0.33320541334511   -0.43564749514110   19.00503977739424
C         0.66897154216014    0.22150978707671   18.98668871437560
C         7.47151307073999   -0.51954410146805   20.75997855323229
H         8.40842761049799   -0.08930958896695   21.08965974469708
C         5.94273187170785   -1.61827011098218   19.46742671196928
H         5.49350937948985   -2.14908013727856   18.63712451426596
C         5.08363478541771    3.09646829993345   20.17513537368709
H         4.90337966969092    3.77907952991768   19.35400116660607
C         7.72657871233807    3.55730115697733   16.60641931244870
H         8.39623237428680    4.15041804462619   17.22388980522459
H         6.69589181902434    3.78119396823518   16.87414043596184
H         7.87320206200309    3.81781972955454   15.56084492840631
H        -0.06351989655566    1.61210695952851   20.06132559078040
H         6.52425460866597   -0.57839931248862   15.72669846266259

