40
CSD_code = QOCVOU | q = 0 | S = 0 | Stoichiometry = C17H15N4O3V | MND = 5
O         2.18708970569781   -0.48858935219747    1.99994476109944
O         0.20758537475074    0.89567905726650    2.80962635649654
C         4.30193584737151    3.32665970677287    4.42910819835373
C         4.59928511785051    4.34454067021506    3.52629069408216
H         4.13874686772831    4.33355738430056    2.54948701846551
C         5.47542819825725    5.34780190127702    3.89310462861336
H         5.70474028609593    6.13777011644157    3.19372023703301
C         6.05651103459662    5.34201214726888    5.15057701643796
H         6.73951640275523    6.12809511090589    5.43394397391793
C         5.75896562812103    4.32440852496619    6.04588121017143
H         6.21290925262837    4.31981966116257    7.02533042869274
C         4.88519604690430    3.31504267790748    5.69556766635764
H         4.64694289645338    2.51859239458222    6.38146928290033
C         1.85022189678551   -0.48425626786141    5.20514662744218
C         2.28073663758990   -0.56888814070995    6.53479974529622
H         2.94505266844621    0.18634292866184    6.92762822126865
C         1.85459242754872   -1.61016045212867    7.33488924257592
H         2.19112417186194   -1.66671274313310    8.36000314627313
C         0.99934853505528   -2.57711348634060    6.83062610107867
H         0.66900453821987   -3.38880670697655    7.46148062861681
C         0.57019644150964   -2.49553446596023    5.51431838958843
H        -0.09630291750567   -3.24740789365880    5.11916901555101
C         0.98707519630952   -1.46002887668963    4.69959257903732
H         0.66031828758794   -1.38264384260252    3.66903134675834
C         0.98707694695109    2.99554210346943    0.71365708084570
H         0.50984322576289    3.33212366436276    1.62706299446112
C         0.90657405248398    3.73648583543652   -0.45520197199082
H         0.36700962513445    4.67080907303511   -0.46844227127592
C         1.52726416399111    3.25268808879468   -1.59652418592768
H         1.48318627755499    3.80279891035416   -2.52481571628874
C         2.20173281355812    2.04471413763878   -1.51782462765181
H         2.69661073830194    1.62613556255421   -2.38025913416894
C         2.23138749728966    1.37227120168637   -0.30477724440056
H         2.73911297212926    0.42078112370022   -0.19437048023319
N         2.26103751200877    0.54918795563341    4.37455034242566
N         3.08799766389724    1.39648399524991    4.86388836064195
N         3.41528066772861    2.32367723377714    4.05286878544875
N         1.63613266671416    1.84236533409530    0.78235230428899
O         2.89001112491710    2.33325658823590    2.84056252442680
V         1.71102150895813    0.87109913850772    2.51953672328829

