33
CSD_code = QOCVUZ | q = 0 | S = 0 | Stoichiometry = C16H12N2NiS2 | MND = 4
Ni       -0.45786714895464    2.22859811190539    6.40037665979923
S         1.09296749788855    1.50664977378889    5.13988591897945
S         0.74284880549241    3.92787804070905    6.83006877446384
C         2.41206536312462    2.65351210886466    5.16116212364661
C         2.24710681658684    3.78832598276138    5.95036276851617
C         3.24831172799141    4.74817548203637    6.01751355567666
H         3.10521781622694    5.62304379294930    6.63364036893168
C         4.40869008955617    4.55995918386376    5.29249489327884
H         5.19309660562380    5.30114169264586    5.33903270171932
C         4.57432390824305    3.42528045026722    4.50532718333743
H         5.48698427622271    3.28924515921659    3.94399199031047
C         3.58061096755494    2.46844665374482    4.43438395548305
H         3.69484401567338    1.58325849092087    3.82708901583950
N        -1.92793167507797    2.79624188893931    7.57359470897653
C        -2.98928305813444    1.95610869936752    7.55166523084453
C        -4.11747871385533    2.19284902850170    8.33955833435381
H        -4.95187720329224    1.51120430417364    8.31274938318524
C        -4.16031694970034    3.30254593145415    9.15755039102920
H        -5.02511879986941    3.49746164450637    9.77326173958994
C        -3.06599938574363    4.15939192977933    9.16950773216787
H        -3.05256214705834    5.03944790196494    9.79160710453320
C        -1.98151504934489    3.86571672638900    8.36632417023184
H        -1.11667159101340    4.51702751644126    8.35718683911094
N        -1.66166088706777    0.72378343446500    6.01819071510848
C        -2.84868563028850    0.80704993952139    6.66366655173813
C        -3.84603251098356   -0.15150891591551    6.47348660344609
H        -4.78959503781129   -0.06325483605715    6.98657608977619
C        -3.62154000605023   -1.21275374549893    5.62168004473359
H        -4.38274558646119   -1.96136830775883    5.46304733042659
C        -2.39417701962389   -1.29473987024263    4.97465438927758
H        -2.17043626449034   -2.10808693454769    4.30392797236340
C        -1.45467547984621   -0.30824725798106    5.20128218174962
H        -0.49249774551744   -0.34578400117631    4.70675257737490

