75
CSD_code = QOCVEJ | q = 1 | S = 0 | Stoichiometry = C34H33NO3P3Pt(1+) | MND = 4
Pt        3.16069218599073    2.94477927500834    2.89788622531875
P         3.12316940540584    0.65167281893990    2.62610735596030
P         5.38011583733967    2.74356026955533    2.90380475334862
P         3.59700403712985    5.19081557008067    2.71307549524549
O         1.07553630506781    3.24045055146049    2.80737090823760
O         1.56554531145933    4.82334877064234    4.16358537101360
O        -0.41533783662674    4.64955470146191    3.37206219575220
N         0.71372185195233    4.27075204847548    3.46332831717216
C         4.89686313479965    0.11162859517399    2.44598269470088
C         5.73437370276568    1.25636328627142    1.87071502322179
C         6.17713495989567    4.24863118930043    2.19124462406163
C         5.09881087403347    5.15317236885155    1.58998414327094
C         2.46358046692309    0.39530270135533    0.95856365981833
C         2.30348573446419    1.50554697231420    0.13420643767986
C         1.81843846995204    1.34792646459057   -1.15046599243323
C         1.49128752375181    0.08277142483497   -1.61316476431950
C         1.64640026851745   -1.02404287205265   -0.79275066001096
C         2.13107750320160   -0.87310119653627    0.49370575649554
C         2.28919631817433   -0.57042710868538    3.66002405355537
C         0.98313594150398   -0.23929983173567    4.02060683639930
C         0.24039743633415   -1.10852483688706    4.79569754671376
C         0.80120152024265   -2.30476418573938    5.21851357553553
C         2.10118452229095   -2.63052505669045    4.86643163344597
C         2.85324134468024   -1.76708783664712    4.08822971103803
C         6.15531325493243    2.37298428113292    4.48981043431546
C         5.35205711882182    1.82522049323575    5.48765744015487
C         5.90030872407029    1.50651587843542    6.71556257968253
C         7.24798136939914    1.73550791910244    6.94888669623963
C         8.04908329681220    2.27603472490639    5.95504208912660
C         7.50843731289001    2.59570108098672    4.72217549110349
C         4.30821950362971    5.91902144170128    4.20021748743258
C         4.33953764881905    5.15490551048898    5.35988826583456
C         4.95478205190884    5.64870027636890    6.49552139113332
C         5.53188787003733    6.90829781162795    6.47374075322589
C         5.49241087693188    7.67638423619883    5.31946624778049
C         4.88652527206305    7.18445304752227    4.17783850562645
C         2.49527642518081    6.37356314307300    1.91366988842165
C         2.13415057946511    6.16583734742282    0.58409503881562
C         1.23098035478645    7.01787309591638   -0.02278612201356
C         0.67757704329885    8.06639398000823    0.69541755988056
C         1.02063301041523    8.26041851200229    2.02406351765726
C         1.92237961159752    7.41289834701140    2.64073063378745
H         4.94738137090156   -0.77039342091228    1.80142942569988
H         5.27467778835961   -0.15526572786814    3.43812852183153
H         5.43249599384378    1.47564916872289    0.84084335782781
H         6.80195783913742    1.01697688662577    1.88339192048097
H         6.92689740212518    3.96952348286686    1.44502310945914
H         6.67783946085326    4.76614421987354    3.01584411220924
H         4.77854173018237    4.76069685367289    0.61987533472600
H         5.48592823678356    6.16219788062632    1.42935609771342
H         2.54306295624499    2.49719824518029    0.51959700183100
H         1.68564828379743    2.20736189740565   -1.78996268105706
H         1.10629349267724   -0.04039766281250   -2.61362572612135
H         1.38272012522179   -2.00579839617274   -1.15521461976526
H         2.24094145896769   -1.73113203650445    1.14270391608760
H         0.56472194947293    0.70167961730742    3.68333298696796
H        -0.77103415966815   -0.85499039500112    5.07310781230711
H         0.22393624621459   -2.98447028261135    5.82590318255548
H         2.53299500037088   -3.56263935427062    5.19833600238660
H         3.86497633372666   -2.02994517136112    3.81620282522165
H         4.29532636437329    1.66232079205590    5.29217674751067
H         5.27970199097645    1.08475236115148    7.49106428088012
H         7.67584462665425    1.49237755223357    7.90899560980006
H         9.09779880813837    2.44876811322508    6.14141762156317
H         8.13274013275847    3.01234912651833    3.94440986809315
H         3.84546260001141    4.19046883839140    5.36783339536985
H         4.97869586822167    5.05660505402804    7.39769329239615
H         6.00661619195981    7.29885289387076    7.36072817617086
H         5.93397284338842    8.66132987024136    5.31108013706199
H         4.85037679108862    7.78210024771420    3.27699988598182
H         2.55039709094045    5.33319558504151    0.03204166397119
H         0.94935254276100    6.85864517652136   -1.05250138147456
H        -0.03369622707165    8.72481724203250    0.22149147971940
H         0.57455020021573    9.06615538107533    2.58609492341193
H         2.17068052254696    7.53465075073730    3.68485891966271

