33
CSD_code = QOCWAG | q = 0 | S = 0 | Stoichiometry = C16H12N2PdS2 | MND = 4
Pd        2.61303787159813    7.95761834776191    1.50064768422346
S         1.28514918272695    9.71492099648617    0.99429675493895
S         0.99004679381317    7.20355104671989    2.88026275688315
C        -0.17964450222002    9.47541553956657    1.91710014895587
C        -0.30984949895941    8.36460782337669    2.75227720746338
C        -1.48027865319011    8.18239411407118    3.48346922899630
H        -1.56381661884277    7.31788659595537    4.12506329126840
C        -2.50722470996619    9.09708892648719    3.38012451673434
H        -3.41380669002581    8.95152285452380    3.94850810321444
C        -2.37789132423320   10.20338084445724    2.54733334744473
H        -3.18426037166201   10.91727218428147    2.46831275097805
C        -1.22165306455658   10.39333042841653    1.81998900542202
H        -1.10454716635763   11.24691026386420    1.16905043646292
N         3.93288529869124    6.42146432518927    1.86398824780841
C         5.10316252160046    6.51178193000508    1.18411285894471
C         6.09406793342626    5.53627345160031    1.34380314744564
H         7.02297019936109    5.61292212955801    0.80311194910184
C         5.88172284510234    4.47532407345893    2.19691363140513
H         6.63919855725936    3.71833579660583    2.32905464427465
C         4.67212037151644    4.39918776870000    2.88452070660185
H         4.46638526144129    3.58550767923484    3.56034102414704
C         3.73336054037771    5.39020105527810    2.68628556336333
H         2.77988117128320    5.36680751520262    3.20249981866990
N         4.18085207704695    8.51837989032764    0.29124677023616
C         5.23763183242447    7.66809587827814    0.30919079778292
C         6.36667416076800    7.92186879032574   -0.47819069698860
H         7.20171161230014    7.24091468623821   -0.46420171241399
C         6.40987067349211    9.04570659441683   -1.27420656868785
H         7.27526850044921    9.25155102807179   -1.88499924798178
C         5.31631216944371    9.90943384280255   -1.27510416189644
H         5.31108088145503   10.79977057071873   -1.88210053922462
C         4.22987159452429    9.60450272342521   -0.48162783092424
H         3.35861054991203   10.24987030459383   -0.45677363465107

