36
CSD_code = QOCXAK | q = 0 | S = 0 | Stoichiometry = C14H16Cl2N2OPd | MND = 4
Pd        7.91676267850892   -0.15540371001417    4.39747772039286
Cl        8.57639060792616    0.74927898337562    2.47133595372420
Cl        7.78653708879111   -2.15549760694101    3.44162721003940
N         7.89913899667739    1.60412178039111    5.36865257854935
N         7.32855939386501   -0.84563635931369    6.36864058385015
O        12.26488811150188   -1.03288235511285    8.99648473527044
C         8.57008328750142    2.71047707513448    5.06086874409095
H         9.13096927217596    2.67772350386849    4.13417803092645
C         8.53215990722918    3.83871742700303    5.86204911501709
H         9.08363791107244    4.71969780589426    5.57677037642869
C         7.77631323938112    3.81298627294191    7.02397548154319
H         7.72452687085375    4.67495308046453    7.67094676220729
C         7.08308494768083    2.65396666754449    7.34232325274470
H         6.48203908945664    2.59707992275283    8.23680563545050
C         7.16349218294258    1.56687299335288    6.48895554059664
C         6.44161806992314    0.26727733253410    6.72934704225125
H         5.56891128788184    0.21998686780515    6.05895584729384
H         6.07395711660635    0.19701747177378    7.76320322456042
C         6.64475020590626   -2.13361532691368    6.47051369184913
H         7.32018432458926   -2.92251416337584    6.14299501155841
H         5.77696886027496   -2.13847416435257    5.80938259556064
H         6.32546482473330   -2.32893680274119    7.50205565719818
C         8.56883101293475   -0.86357834174191    7.11120235560682
C         8.67735970860834   -0.43584367210453    8.42495584721315
H         7.82078003146378   -0.06199638100217    8.96459373514197
C         9.89531016876482   -0.47116785674519    9.08757385341499
H         9.93826368204416   -0.12121729449550   10.10669709578076
C        11.02909124787137   -0.95288998539665    8.44515607808463
C        10.91751340801493   -1.39881719890812    7.12378513097523
H        11.80097193527811   -1.77425478310277    6.63370528333388
C         9.70940892468609   -1.35319485714957    6.46657771852532
H         9.63776106633551   -1.71715163911524    5.43836563717659
C        12.44267829324142   -0.61576982054913   10.32917536059117
H        12.20856119618590    0.44654099055697   10.45263438501413
H        13.49603065595318   -0.77913868373573   10.55001859713715
H        11.83310039313844   -1.20701717258026   11.01991413090108

