61
CSD_code = QOCZUD | q = 0 | S = 0 | Stoichiometry = C29H27IrN2O2 | MND = 6
Ir        2.94686278668981    2.76664123506545    1.40802228600377
N         1.25413613143765    2.73140504597967    2.45889799457602
C         0.14554337910073    3.37801923751981    2.10906247646503
H         0.23329410788210    4.05959730615804    1.27404373613776
C        -1.06071358426619    3.21171290341833    2.76114095632019
H        -1.93248367644523    3.75710253846761    2.43662445507225
C        -1.12015895447805    2.32969642530699    3.83274349581243
H        -2.04755128649246    2.16771398477888    4.36161963703665
C         0.03022126480238    1.66698561402968    4.21094166638446
H         0.01326091734059    0.97922022977868    5.04080288623472
C         1.21956589981030    1.88070454613258    3.51346567545781
C         2.49928808040823    1.26434272152813    3.81529188662932
C         2.72470211217848    0.39061057252536    4.87804927781574
H         1.91982162189121    0.11428683629766    5.54375303269807
C         3.98339181286052   -0.13053228497876    5.08900416069676
H         4.15396965321140   -0.80781199195275    5.91407361940705
C         5.03873392174496    0.21048116078951    4.24888698995827
C         6.40548119091040   -0.36567466138180    4.46583736594964
H         6.56764448098778   -1.20420213414363    3.78772831515521
H         6.52029916694124   -0.72674939956174    5.48516924905078
H         7.17259819755130    0.37905007979430    4.26489588363189
C         4.80510133967017    1.07982495791778    3.18921531374040
H         5.63702554169673    1.33756023562288    2.54683246108221
C         3.55125749554758    1.62155663368710    2.94297975981549
N         4.64861980336301    2.79699122748084    0.37296021345737
C         4.97177880750508    1.90155629963556   -0.55614721367821
H         4.30952471429406    1.05207500999799   -0.65206151661873
C         6.08711622938423    2.02161914276287   -1.36197604908821
H         6.30419912488230    1.26929174314636   -2.10332713473553
C         6.91137203566868    3.12724993421933   -1.19450090746518
H         7.78861046779384    3.25819407146589   -1.81037050412941
C         6.58947113575803    4.05347818965732   -0.22291047435802
H         7.21321620293055    4.91916554230233   -0.06959162413199
C         5.44944547673286    3.87415947210645    0.56134866820524
C         5.00555226127161    4.75881666303466    1.62359243910489
C         5.68053954807366    5.91168203789719    2.02597406338641
H         6.59621345084095    6.21184273027821    1.53730586966785
C         5.17968058884515    6.68111651038226    3.05238262138917
H         5.70259694821872    7.57490762874336    3.36259977797062
C         3.99961173614577    6.31814908437830    3.69808211661410
C         3.47574734268488    7.16009722000507    4.82214722841516
H         4.13417975444301    7.08135795626395    5.68728872800565
H         2.48015277774139    6.83950660282036    5.11771634405423
H         3.43619501419872    8.20825017741110    4.52941886703188
C         3.33324526602273    5.16991462787432    3.29123715642364
H         2.41937332196254    4.89755356314909    3.80287139829792
C         3.80643802154342    4.36972028290750    2.25867952338759
O         2.06670798401146    1.04720304352246    0.30996115484915
O         2.11813704173854    3.94894283946826   -0.27946141785193
C         1.41574574453624    1.07860157792892   -0.76079522520163
C         1.50120262121032    3.51888972512464   -1.28220336724866
C         0.88291653367826   -0.25018500527802   -1.27385518304368
H         1.30934024155468   -0.47187847196128   -2.25047182351788
H        -0.19927490308701   -0.20362184233522   -1.37672521158495
H         1.14523279965941   -1.04287860750475   -0.57726041554820
C         1.08368135395206    4.54973396351280   -2.31938421260912
H         1.51327488865390    4.30020332249718   -3.28739679246717
H         1.42858006544375    5.53500423374137   -2.01502017556657
H        -0.00007500251858    4.56142649802004   -2.41970854103372
C         1.13480870212455    2.19666383791413   -1.55210401826328
H         0.57885029775479    2.02175737464645   -2.46177694325166

