47
CSD_code = QODCAO | q = 1 | S = 0 | Stoichiometry = C24H16Cl2CoN4(1+) | MND = 6
Co        4.22547774905953    1.25561291149458   11.97550086880814
Cl        3.45276464287982    1.84409371107732   10.03290019437276
Cl        4.96393449641616   -0.64519874479620   11.22673080317735
N         2.65206326266007    0.28985676738408   12.44924454681377
N         4.89528001515482    0.70970521866832   13.73652967609212
N         3.58218384108264    2.98608805962476   12.64007998107084
N         5.79831618926824    2.21015568734268   11.47722001217463
C         1.55081178705683    0.07719348980712   11.75254350810867
H         1.45964077352969    0.60230605568695   10.81097515218991
C         0.54708332530355   -0.79423348435723   12.18619315452840
H        -0.32608731235202   -0.93071482377753   11.56849149604406
C         0.68790294438496   -1.47068939574622   13.37485816956596
H        -0.06913379222743   -2.15652748689017   13.72327871901562
C         1.85306078486461   -1.26695518321759   14.13401046372879
C         2.13261090771243   -1.92139653477839   15.36991255888431
H         1.39356807494167   -2.60434690022306   15.75975850328513
C         3.29591428807565   -1.70771742431708   16.03448098325623
H         3.50133191547948   -2.21731541292486   16.96323971039763
C         4.28614489608344   -0.81798862955408   15.52449320874024
C         5.52515762479045   -0.57343817433682   16.13881435699012
H         5.77796745290750   -1.07268319347526   17.06161182087986
C         6.40210646139681    0.29910309748389   15.53707920376007
H         7.36516822508224    0.50772584844651   15.97454239976626
C         6.05108155653989    0.92107825617519   14.33659682396297
H         6.74190029715937    1.60267301778854   13.86037609265590
C         4.02659968382910   -0.14375004851640   14.31453659923892
C         2.80785527808932   -0.37007718630730   13.61726648195445
C         2.43985568649992    3.33952501900409   13.19772998952447
H         1.74550211364827    2.55118853188636   13.45239242272635
C         2.10776391708274    4.67129313965022   13.45745524734395
H         1.15538557656902    4.89649812706869   13.90982239302367
C         2.98935055687436    5.67433553287209   13.12718700272190
H         2.75096941035091    6.71100220962313   13.30993447033889
C         4.21373095802731    5.32950821925634   12.53191945070867
C         5.20620064563338    6.27000249154680   12.12838218676908
H         5.01460543675310    7.31719660692467   12.30458622917013
C         6.35447036229353    5.86759195081154   11.52819436326926
H         7.09517141838566    6.58845335931063   11.21747510606683
C         6.61582744553460    4.48854692436982   11.27584557796935
C         7.76529867440938    4.00538429259898   10.62721108887619
H         8.52325998568497    4.69526561195536   10.28861126597332
C         7.88995872553835    2.65114525511766   10.42553413264984
H         8.75103731690936    2.24062408850370    9.92301251941750
C         6.88522712406251    1.78217984967362   10.86186400156949
H         6.96375347139259    0.71615806906812   10.69460337818615
C         5.65866993523703    3.53795897093646   11.68015402914923
C         4.45505586994293    3.95888225206303   12.31011965508052

