59
CSD_code = QODDOF | q = 1 | S = 0 | Stoichiometry = C18H26B10N3OPd(1+) | MND = 4
Pd       -0.88595268896063   11.46548775179248   -1.94006483042022
O        -1.74637664323862   11.82659256338803   -3.81883761229836
C         0.02644302086285    8.90690957022298   -3.51810213513977
C        -0.58433826722075    7.71031372731245   -4.38772160229315
C         0.89913889429997    9.94248662724647   -4.19735185020797
H         1.03485831166800   10.80777793845240   -3.52630647434238
H         1.88527085530783    9.54308336400450   -4.43095472190961
H         0.45773527533835   10.30807335458528   -5.12558253949689
C        -0.27383019944512    7.66948832026428   -5.86585157988713
H        -0.80654956518400    6.84397125156083   -6.33351211507560
H        -0.56947980673887    8.58706621666213   -6.37575383526844
H         0.78924173924584    7.51787440876792   -6.04606544376383
C        -2.26182748504554   11.19864558159084   -4.74902129267435
C        -2.98512427530085   11.93121108598946   -5.85016610846701
H        -2.61384260244714   11.63091545377646   -6.82851178019325
H        -4.04818513977011   11.69918057525900   -5.80042818035075
H        -2.85620991914186   13.00301189198397   -5.72835194989930
C        -0.74693156602821   14.73335212268345   -2.62664358643725
H        -0.94155061588165   14.46305229652713   -3.65693010004257
C        -0.70010386078415   16.07465410114763   -2.23363656250602
H        -0.86600796157927   16.85574698951563   -2.95779032824811
C        -0.43405005500662   16.36678577464997   -0.91830521962279
H        -0.38145824180283   17.38802879566620   -0.57179616693365
C        -0.22357594148024   15.31842506533071   -0.00594324515820
C        -0.30857165370802   13.99319103145833   -0.49386076369190
C        -0.11123094349703   12.87925033487817    0.39779164811558
C         0.20511300879768   13.15916768278402    1.74887770312962
C         0.28486207564282   14.50717620270497    2.20367416750316
H         0.51907472844058   14.67257981260089    3.24398890932506
C         0.07065759122007   15.54797227737218    1.36626096680150
H         0.12390458901766   16.56712780886127    1.71685442115383
C         0.42954555800473   12.08312520889974    2.62306834424605
H         0.67205226143111   12.27628401430443    3.65645421612939
C         0.33316869220227   10.80617838822987    2.13123644995561
H         0.50038124278516    9.94762497933107    2.76020004283236
C         0.00088141189709   10.61304213343269    0.78954039420614
H        -0.08750604653631    9.60949942450998    0.40521384260044
N        -2.20443371764346    9.86827169933606   -4.85344251564821
H        -2.70982790172672    9.46717878079931   -5.63075699386025
N        -0.55798872987613   13.73637645666902   -1.79172153635218
N        -0.22195848806437   11.60195185909557   -0.06087918298183
B        -1.67787317343780    8.94087058195388   -3.80574231994038
B        -1.04645804881612    9.41475726896833   -2.23664878519722
B         0.37987373653191    8.40648152177613   -1.92718402818291
H         1.31716139656450    8.89602729179979   -1.41069418045172
B         0.66859163528867    7.31995727918044   -3.27650267957101
H         1.72597861993194    7.11648251128655   -3.73630258133291
B        -2.14423095923968    7.26034073367903   -3.80609800315670
H        -2.92724411474861    6.89666003416025   -4.60089753007266
B        -2.46665115008634    8.31496099005033   -2.38406087446407
H        -3.55117731295836    8.65262116354151   -2.09429318500246
B        -1.19079909204644    7.96767578134466   -1.19839966558628
H        -1.40710938388970    8.03686347210227   -0.04656342840314
B        -0.11856679741120    6.69381483963461   -1.84215122190477
H         0.41896056323508    5.92005471116842   -1.14705019781517
B        -0.72188640680512    6.27274483022050   -3.46795335748334
H        -0.59263949919633    5.25656978818742   -4.03520631962168
B        -1.87877177462589    6.63871632687656   -2.16950723684386
H        -2.56507517833961    5.81306795040233   -1.70281525778833

