65
CSD_code = QODDOD | q = 0 | S = 0 | Stoichiometry = C32H26N3OPPdS | MND = 4
S        10.91456420255250    6.35351976325857   11.19108758145259
O         6.84093182166580    5.49432352900273   10.00749655979891
N         8.88447869930544    4.37248343330773   11.74787420514746
N        10.02388022777815    4.14808274463006   12.45075032721854
N        12.18483142894566    4.87501014846128   12.92199240739496
H        12.84449034250337    5.60317769005311   12.68076294089981
P         8.58865906235743    7.69175701944211    9.13299886436725
Pd        8.76393933956317    5.93779031337297   10.52395226540468
C         6.96201643633676    8.18650312782193    8.50010604552200
C         6.34518024732990    7.32034094268697    7.60066409866846
H         6.86527532931134    6.42270052674413    7.29245686241293
C         5.07906469251933    7.60238759250249    7.12686839020766
H         4.59961523292011    6.92850292272359    6.43162218512852
C         4.42054659842300    8.74746610933186    7.54935003530433
H         3.42911596463596    8.96655411429919    7.18100318692394
C         5.02985493562907    9.60727327853789    8.44760340842252
H         4.51397967318240   10.49682569435828    8.77912299239232
C         6.29729291231620    9.32844940379160    8.92955040192616
H         6.76919048034467    9.99530360296331    9.63835609673008
C         9.54322747922919    7.46475190736285    7.60373412849988
C        10.31157519523418    6.30682835339328    7.51330550088361
H        10.31205973107076    5.60325411232374    8.35379036136723
C        11.04892343855360    6.05239284062041    6.37092794017044
H        11.64657937064460    5.15579057981881    6.29932011778379
C        11.01441254293794    6.94926261612076    5.31498910208160
H        11.59073906022203    6.75326462375480    4.42291952544014
C        10.23075624755926    8.09038034574283    5.39211210147394
H        10.19442767416234    8.77684445799471    4.55876745877719
C         9.48879691197554    8.34869038555587    6.53039729369574
H         8.85366345173802    9.22251873092919    6.58477544952290
C         9.20573279916830    9.17574842398607    9.98628791724529
C         9.91686056572559   10.21750567568633    9.40805414122213
H        10.15649542818570   10.19289460582473    8.35525107577669
C        10.33561445770659   11.27822123123537   10.19435634564370
H        10.89460668661446   12.08769860351009    9.74803257821835
C        10.04599780379095   11.30280703688334   11.54823917257695
H        10.37761168971045   12.13270245281986   12.15460257864784
C         9.34353812830445   10.25844934450195   12.13165725510621
H         9.13179792709295   10.27372459293130   13.19059905781904
C         8.93030718100206    9.19406003196443   11.35444662545796
H         8.39611484155720    8.34406372799948   11.79723310434697
C         6.16214483228292    4.48134471313779   10.42674382816669
C         4.83998136100523    4.33701590463679    9.93527375762458
H         4.49421487535593    5.09313140136966    9.24497103826104
C         4.03702239615711    3.29611737810434   10.31334480976573
H         3.03474525642239    3.21874860106775    9.91649195883690
C         4.50427891947449    2.33084522074793   11.21012179532190
H         3.86681441089020    1.51114605312973   11.50465112003753
C         5.77410898908447    2.43838612232587   11.70967153463273
H         6.14324058804364    1.69751208271361   12.40569815883952
C         6.63457215476906    3.49418349238967   11.34700028059138
C         7.93022157442406    3.50828001938152   11.93464895133085
H         8.15391713803566    2.69835963905475   12.63037202539055
C        10.99526610919246    4.98071422947610   12.27727522528379
C        12.62702360665183    3.94081568546441   13.84716730101441
C        11.84551009611691    2.87467423911165   14.28541787449573
H        10.84976395945653    2.76304350578899   13.89188079744418
C        12.35432069235002    1.98306788362275   15.21089214315412
H        11.74074863916640    1.15883597601853   15.54386779201341
C        13.63649012136272    2.13477104219438   15.71159207112990
H        14.02650257268146    1.43373774432906   16.43381194084377
C        14.41620132226416    3.19435527460759   15.27730158500872
H        15.41781452221070    3.32342014500801   15.66064074098989
C        13.91911694890816    4.09147057935660   14.35327803347779
H        14.52933267389128    4.91821642865975   14.01606754927792

