18
CSD_code = QODDEU | q = 0 | S = 0 | Stoichiometry = C9H6ClHgN | MND = 2
Hg        0.00444724381650   -0.97223598125641   19.87292883840983
Cl       -2.04097278575146    0.19083534471453   19.98478708133107
C         2.00884208066962   -2.49694852728817   18.38516580061385
C         4.13629618137005   -3.57244520696374   18.84716157698178
H         4.98762812119663   -4.14390805300991   18.50692534341891
C         1.02978387102909   -2.50065381643790   16.31408115963770
H         0.19418011400313   -2.19459236768763   15.69856525675079
C         2.92940204411468   -2.42162325542985   20.60015925497903
H         2.89576496761450   -2.12370150520482   21.63903110976853
C         1.91996985734493   -2.08467629300936   19.73632486661118
C         3.13040122122970   -3.61787186567329   16.56344828629020
H         3.96113697742318   -4.19029829444481   16.17550802431583
N         0.98972625402029   -2.14166433167807   17.56865010389520
C         4.03729080142510   -3.16729768527196   20.14865604812984
H         4.81591614946079   -3.41691606020914   20.85434568618430
C         3.12133428674020   -3.24765789488382   17.92440031078318
C         2.08672440390731   -3.24502615659464   15.75987904967175
H         2.06062821039342   -3.51061804966969   14.71468220222669

