68
CSD_code = QODHAV | q = 0 | S = 0 | Stoichiometry = C24H35O5PSi2W | MND = 6
P         3.75744518149752    2.99560531442910    1.52353906746894
C         3.63731139255618    1.40475299329498    1.17025560299384
C         3.79516019008747    0.11235533856346    1.11703951358364
H         4.12337342463741   -0.36907894773869    0.19984425710307
C         3.53758412989863   -0.83876949865425    2.26163228457440
C         4.81935951814380   -1.65086394813966    2.49556842238262
H         5.09049094268020   -2.19000561345332    1.58431008153121
H         5.63995308991491   -0.97197681023541    2.74013247747768
C         3.18332702376603   -0.08891384792409    3.54483373319642
H         3.99508863123514    0.60096539518833    3.79447743758377
H         2.27860689387913    0.50186042088582    3.38846646175458
C         2.39794338954914   -1.79993291438266    1.90220773253225
H         1.48041670616986   -1.23357641424477    1.72370109920942
H         2.64283251612152   -2.34065587830189    0.98432777830490
C         4.60047924935061   -2.64192264966335    3.63777167422571
H         5.52067870243096   -3.21561726516893    3.79590899612340
C         2.18259287735942   -2.78960482361117    3.04702379476961
H         1.36434885089530   -3.47008862840476    2.78422381473370
C         2.96642110063313   -1.08072611555154    4.68510167359868
H         2.71073772645779   -0.53043351885810    5.59739920505629
C         1.82348775640292   -2.02794455910657    4.32204626083081
H         1.64986886420519   -2.73257691356376    5.13833709753040
H         0.90350446960131   -1.45868530226218    4.16876922644140
C         4.24609170202917   -1.88247445054731    4.91482143098727
H         5.06165037100719   -1.20832717521986    5.18591583778281
H         4.10384540604214   -2.58546768855125    5.73867836853423
C         3.46137651581990   -3.59413362289008    3.27580550065030
H         3.30779956514230   -4.31363547007108    4.08308534045599
H         3.71605189728043   -4.15457251448516    2.37300292738950
C         2.23864063174481    3.90933014749814    1.06811202753368
H         2.50997536098982    4.95143233628057    1.27182897062645
Si        0.82809235440700    3.48794627155262    2.30305517389448
C         3.67848815538317    4.22551057509469   -1.61104359858223
H         4.44325856499409    3.53098952964476   -1.26807040863505
H         4.00036654604792    5.22660545333147   -1.33744391283899
H         3.65316962872387    4.17665584216286   -2.69531270833515
C         1.44989985574804    2.05996817242206   -1.39001997499994
H         1.50485381177423    1.97228580297790   -2.47057170445319
H         0.42934022396155    1.84146257315179   -1.09567209960014
H         2.09097108372674    1.29552821090499   -0.96344071929912
C         0.68759943789857    5.08547642016243   -1.37100276861791
H         0.70739835003122    5.21823252372963   -2.44744260100576
H         0.86489927203490    6.05506388232084   -0.91777616827394
H        -0.31513182870579    4.77275770733103   -1.10102148556445
Si        1.98848953871490    3.79969431891347   -0.83587361871694
C         0.09165601347106    1.77312089224977    1.91634837795514
H         0.84736931866643    1.09829431282493    1.52812368528737
H        -0.69978812359742    1.84417432754226    1.17748259890182
H        -0.33636410345555    1.32255416107517    2.80659489691614
C        -0.52572311798664    4.82402867855830    2.19539730976628
H        -1.28755408861602    4.65359558549199    2.94889905749367
H        -1.01613816505243    4.82350883195298    1.22841184125041
H        -0.12108566468176    5.81745816054185    2.35907972584217
C         1.59558783881484    3.52704884209646    4.04868020285985
H         0.87637153342205    3.25757593233372    4.81643416047801
H         1.96985351985508    4.51912960062226    4.28770135673214
H         2.43271154075748    2.83715932811653    4.12503861288541
W         5.70995727840776    4.05578583609322    2.62185729976852
C         4.59964685384499    5.65112435854462    3.08381527650073
O         3.96165500826760    6.56110690377687    3.35760075474047
C         5.26175163708187    3.20967583067040    4.37589698543576
O         5.08597106247269    2.73720698150585    5.40225414492771
C         6.75035350896594    2.40771607538748    2.16476533029284
O         7.29546787351622    1.43226241620864    1.92570167673397
C         6.26117382422896    4.94050128297538    0.91288944778793
O         6.63559826687770    5.48729996406565   -0.01783244579264
C         7.27251958120480    4.89477350193048    3.50299046189011
O         8.17476953126624    5.38230353661444    4.01003773940618

