133
CSD_code = QODJAX | q = 0 | S = 0 | Stoichiometry = C60H69P3Pt | MND = 4
Pt        4.26037248760292    3.59497526958706    3.28528776504905
P         2.78210278178637    1.80695177353248    2.92161886702822
C         2.19743210356958    3.44138570622177    3.01303545721824
C         1.17306248857125    4.23979046789617    2.78368675777497
H         1.29150363605116    5.31458683671572    2.91938866686227
C        -0.22651679283689    3.85015712796288    2.35457741082209
C        -0.28475371282815    2.43022296844998    1.80054107130125
H        -1.28496846926019    2.21346811138060    1.42967954040578
H        -0.04194121933736    1.70498235744716    2.57328769498723
H         0.42258242996856    2.31294110967475    0.98196467593568
C        -1.15350221008382    3.96022602662937    3.57189202605552
H        -1.10055379309914    4.95644379205929    4.00777356919947
H        -0.86212755685247    3.23260641553264    4.32553631625625
H        -2.18465693207472    3.76634153511218    3.28154871563289
C        -0.67912030901363    4.83932770874253    1.27479188071687
H        -0.65365573628408    5.86080838947273    1.65067622212777
H        -1.69558727525120    4.61569072653138    0.95594500583319
H        -0.02193397358184    4.78056431871952    0.40976761697415
C         1.89556564970178    0.90884049019295    4.27402012920465
C         1.38086757662603   -0.33787553129124    3.83957886988926
C         2.15229374601984   -1.28352945820160    2.91364683503459
C         3.66052858067346   -1.19233652097380    3.17938567684942
H         4.19154367453632   -1.92246114381889    2.57135711432890
H         3.87005863051423   -1.40123120625878    4.22698429178768
H         4.06727526715583   -0.21366368762545    2.94081768480902
C         1.84404782358127   -0.99231962444101    1.43986907966288
H         2.20956677384617   -0.00997640547095    1.15334254296102
H         0.76986768103771   -1.02159564618619    1.26826384667033
H         2.31938993965995   -1.73861318907132    0.80603771862888
C         1.76466589639476   -2.74851711761826    3.18772064509600
H         2.48485293932506   -3.40580252154390    2.70418088557827
H         0.78483877894393   -2.99389984184250    2.78592533803334
H         1.77392156199835   -2.96057582173901    4.25474929732983
C         0.14348054167820   -0.75509743525957    4.30753340389668
H        -0.27752929812028   -1.66332271923362    3.91848516799703
C        -0.58988262962080   -0.01216474170045    5.21918101927004
C        -2.01918942494620   -0.34554424894547    5.61255389960571
C        -2.06146648064866   -0.74667856574952    7.09368781776090
H        -3.07569759136331   -1.01614134004211    7.38219071880130
H        -1.73118544359685    0.06762795255702    7.73302026260753
H        -1.41249662053034   -1.60220717777841    7.27015931767880
C        -2.89595666786551    0.89357559621970    5.38392112244213
H        -2.85985867872414    1.18801376214858    4.33727347750027
H        -2.55948596417306    1.73433136505218    5.98444849960243
H        -3.92953627017415    0.67883096993536    5.64877309343925
C        -2.60194294362380   -1.49588485925846    4.78681678612644
H        -2.06664531194084   -2.42415824909769    4.97317414864350
H        -2.56266988862193   -1.26873031463834    3.72378644114215
H        -3.64371417770424   -1.65027827089884    5.06203926308860
C         0.07500321004535    1.03646413153831    5.83481393466883
H        -0.41125552577510    1.54499875246943    6.65224929598512
C         1.33098313360064    1.47630712576415    5.43823096536775
C         2.03368371021680    2.43266683472935    6.40431707860384
C         1.36670865903047    3.81195171452535    6.40585421619097
H         1.88694177641109    4.47778968730557    7.09266614909815
H         0.32769790762766    3.74383246045010    6.71974785122857
H         1.38882342824551    4.24002174096347    5.40683977167031
C         1.93696988554298    1.82509089723568    7.81972220882356
H         2.32960582047985    0.81032515303449    7.82017580850971
H         0.91807316145086    1.79547134422408    8.19265858434816
H         2.52342943426612    2.42177385255162    8.51612586707667
C         3.52822111443588    2.58006688265666    6.12556197767710
H         4.01950885123339    3.06392943534661    6.96889403578180
H         3.71369773359993    3.20169744019146    5.22983388917515
H         3.98199100728198    1.60107050725710    5.97462741493326
P         4.62493668947242    5.82541698290364    2.67285928673207
C         3.51101756755294    6.26111106594448    1.29670153210968
C         3.22982287388424    5.24090341997050    0.39234420480569
H         3.64312234698684    4.25388108857846    0.57189807028998
C         2.41886581521269    5.47827162737150   -0.69996348631689
H         2.20912764853680    4.68374320914535   -1.40180767275950
C         1.86607570416917    6.73571217246105   -0.88697179302067
H         1.22296516062808    6.92372501215413   -1.73437251790379
C         2.12697805739701    7.74817687859681    0.02093583230622
H         1.68569589575323    8.72465749583123   -0.11890312423091
C         2.95089789334955    7.51747667612961    1.10915862844050
H         3.14703719634951    8.31191196847258    1.81538707827995
C         4.28565866701703    7.11682977869897    3.90958646236195
C         3.49026858218527    6.74631981557929    4.98799489099051
H         3.13835898780550    5.72319249957259    5.04665027434688
C         3.15876258958912    7.66611816979835    5.96522464038612
H         2.53699044255400    7.37165030889229    6.79816409004694
C         3.62904622279605    8.96560746972636    5.87280771162088
H         3.37555287787720    9.68887017942714    6.63414673303250
C         4.43014575362410    9.33927036205958    4.80479178351201
H         4.79835209037754   10.35298646618507    4.73616310690328
C         4.76010874931902    8.42211526195380    3.82349303676236
H         5.39082645085704    8.71537533364309    2.99530792696459
C         6.22438226327510    6.38430489164388    1.99656474000066
C         7.26491671623644    6.65822238419400    2.88207555076191
H         7.09205501881348    6.58736642241031    3.94708364270117
C         8.50764626145723    7.02978762660923    2.40968140384431
H         9.30391977834272    7.24606202092931    3.10762480408531
C         8.73160253390759    7.12603918351793    1.04555459886602
H         9.70184501361634    7.42259546688370    0.67510650098364
C         7.70781455085953    6.83780231406708    0.15958927436502
H         7.87909889179149    6.90673666668987   -0.90493717902237
C         6.46230837410574    6.46280943649084    0.62864266515228
H         5.66915142527163    6.23741565548635   -0.07001025741456
P         6.43730438801931    2.80494440047668    3.53976544916379
C         7.29060648856700    3.16517631640429    1.97350754178568
C         6.50635598480475    2.97658917241292    0.83670827970383
H         5.48056875899657    2.63823825460429    0.96405466838476
C         7.02573006712176    3.21091228704368   -0.42066255040945
H         6.41437161613180    3.05870804446815   -1.29849760016107
C         8.33481399780975    3.64711503877969   -0.55098632112156
H         8.74800501406819    3.83171683637994   -1.53184188539906
C         9.11045529675486    3.85731632351090    0.57621247351044
H        10.12646505207010    4.21013826009472    0.47308272748399
C         8.59395087088353    3.62020438852680    1.83835523658032
H         9.20239891811193    3.80083707349880    2.71253007144962
C         7.48940942549697    3.53282888245972    4.83496472409937
C         6.95783734679229    4.58027972597420    5.57771176256111
H         5.94510312263686    4.91033869470957    5.36791129715183
C         7.70456886720615    5.18540245907847    6.57216216513508
H         7.28513534353002    6.00065441395165    7.14455568277878
C         8.98983602376677    4.74021579677366    6.83254675086765
H         9.57867378862857    5.21065374318228    7.60645224372512
C         9.51814851067656    3.68116866270487    6.11011532228123
H        10.51626978998320    3.32732054453439    6.32538040387513
C         8.77138688077013    3.07230351225553    5.11847731684001
H         9.17373760320068    2.23052329844152    4.57098813952712
C         6.81997934993415    1.03533142234434    3.76759219055032
C         6.70015587442091    0.50874084554051    5.05222029757045
H         6.46200924176880    1.17038345397766    5.87510973809785
C         6.89062409275347   -0.84039124914048    5.27459524371003
H         6.80054776669246   -1.24004525871162    6.27458561606077
C         7.19395622475609   -1.68177531342149    4.21549590440450
H         7.34136875039122   -2.73762649404433    4.38867113382232
C         7.30209979342086   -1.16625551284512    2.93529887104802
H         7.53549950139524   -1.82038502978074    2.10746230324197
C         7.11131879829288    0.18494687119784    2.70733621274612
H         7.19292343445413    0.58038172336201    1.70462344414677

