33
CSD_code = QODKUS | q = 0 | S = 0 | Stoichiometry = C13H14Cl2N2OPd | MND = 4
Pd        6.64459496157603    1.39139762179121    9.74198501109124
Cl        7.90842798109672    0.95592384079491    7.96924886643098
Cl        7.25268541674017   -0.50503272983275   10.70957394235957
N         5.89327271323279    3.11828110921186    9.00822854830553
N         5.47310350298490    1.93868041951172   11.42964830048394
H         5.07458077495426    1.08680074579383   11.82545850610595
C         6.31575038508327    3.75976297938996    7.91885990083979
H         7.09620082423666    3.25845809827019    7.35724060711621
C         5.78773173460712    4.97637462690372    7.52528582725835
H         6.15630281584817    5.45915451988801    6.63495895006073
C         4.78688404536763    5.55425332836741    8.29206428727126
H         4.35361682659051    6.50342085897458    8.01732069955381
C         4.35214859189373    4.88574446561427    9.42621621622117
H         3.57649357369343    5.30121228856513   10.05099208959230
C         4.92446114279685    3.66653378754175    9.75803210986686
C         4.45699108169969    2.88254065699138   10.96595729545560
H         3.56691085030849    2.31259742363500   10.66972426104937
H         4.16764145156084    3.57650376546828   11.76884348355804
C         6.49077177291594    2.43822632171606   12.29784227826559
C         7.01377600661398    3.71892558128752   12.15805450638639
H         6.65341008395311    4.38763785277103   11.38847264125933
C         8.01295112792823    4.17098837907029   13.00699537608775
H         8.39656980748271    5.16856670561258   12.86420252493161
C         8.50777090454524    3.34753895773722   14.01094277470064
O         9.47777695884996    3.69139917112333   14.89761867942135
C        10.08956964422913    4.95269644253738   14.77463256351016
H        10.57528012629164    5.07002466873084   13.80091837001556
H        10.84325553402515    4.99162830063321   15.55921201718557
H         9.37088994843882    5.76534216504820   14.92469639509629
C         7.97904841104890    2.06132332213508   14.15096618391976
H         8.37257569522335    1.42764722800656   14.92870800325621
C         6.98200343801636    1.61596006704205   13.31498478623084
H         6.59995186616417    0.61138702966220   13.42221399711409

