63
CSD_code = QODKOM | q = 0 | S = 0 | Stoichiometry = C26H28Br2CdN4O2 | MND = 6
Cd       -0.21082298680493    7.29690580501120    6.36844170747687
Br        1.35191845572789    8.01818728827119    4.49935212852017
N         0.90106832591414    8.85510511918710    7.93511579991393
N         1.80505579236988    6.32384540734995    7.60649884567928
H         2.56086819848073    6.76731846503255    7.08722613533967
C         0.66670440052640   10.16094424979242    7.92589941250766
H         0.19276983605643   10.55246032917846    7.03413516815585
C         1.00512231197600   10.99229539908567    8.97870266136287
H         0.78519023501307   12.04648591131878    8.93143201870227
C         1.62410664242226   10.43239266211744   10.08628297459492
H         1.90146923881582   11.04411852446176   10.93180226757165
C         1.88592639245344    9.07419815023200   10.08854100631368
H         2.37171953555665    8.60317698103412   10.92937235057872
C         1.50562295833338    8.31225876626102    8.98833697735843
C         1.73169488931413    6.82136893599425    8.96721316528779
H         2.63137367040131    6.57363129993776    9.55236253371606
H         0.86738275919805    6.36411937443713    9.46302994566286
C         1.74003319409816    4.94579346449398    7.32982083613604
C         1.08446208609121    4.03236789822262    8.14831541462184
H         0.63368638897343    4.33998366819986    9.07858298739174
C         0.96347166158902    2.70218056412752    7.77552967019663
H         0.43945055633709    2.03198809220131    8.43802238279184
C         1.49974248317402    2.25434938883456    6.57618045190409
O         1.42356257387244    0.97098794211833    6.10888151448961
C         0.78774548352840    0.00772265605165    6.91117919086155
H         1.28908533350857   -0.10615668650544    7.87800591260542
H         0.85682124844869   -0.92843568450182    6.35915748305416
H        -0.26698280076989    0.25227083248573    7.07702699397767
C         2.17049767306239    3.16469754750799    5.75739163803696
H         2.59054118456867    2.81190401905335    4.82918720574271
C         2.29239852549756    4.48418138490051    6.12955158584864
H         2.80861057513136    5.17564201950096    5.47709247722053
Br       -1.77133190305752    6.57564893232334    8.23905537872217
N        -1.32234046600067    5.73369606394263    4.80605068660324
N        -2.22204645347559    8.26618690608307    5.12136329751317
H        -2.97893532782048    7.82339678913582    5.63967228198736
C        -1.08837127369835    4.42781033831546    4.82054635547581
H        -0.62380796030083    4.03834705574993    5.71805685745987
C        -1.41544163164898    3.59433610358359    3.76590267048338
H        -1.19573250013214    2.54029242662917    3.81756307149908
C        -2.02291565548951    4.15194941329409    2.65080482153102
H        -2.29154709772029    3.53844390613896    1.80374840975575
C        -2.28596571134808    5.50987282742215    2.64351246556864
H        -2.76354365148534    5.97907437318963    1.79697272531452
C        -1.91691426477614    6.27411663734019    3.74597403517001
C        -2.14447269840408    7.76479327424808    3.76229196979744
H        -3.04287893584906    8.00982622360095    3.17406265455650
H        -1.27940724996146    8.22158517668817    3.26741307055499
C        -2.15982919026524    9.64534677543781    5.39352886292906
C        -1.50484324786453   10.55722291948798    4.57285875529791
H        -1.05176615978774   10.24722829344295    3.64452027747642
C        -1.38799383174174   11.88913288537572    4.94065150379352
H        -0.86466602162427   12.55814602624000    4.27642982030699
C        -1.92787090302461   12.34032518892892    6.13711250514015
O        -1.85705180087945   13.62597071457959    6.59886145311792
C        -1.22561126741679   14.58850566998681    5.79223061672773
H        -1.72676208177786   14.69477138187365    4.82442917080717
H        -1.30014510125925   15.52707108564749    6.33943432221607
H        -0.16946015635955   14.34876054316925    5.62848925753957
C        -2.59725618905496   11.43129697464308    6.95850575592159
H        -3.01939124732475   11.78649949379871    7.88484853096641
C        -2.71504997607669   10.11003204343975    6.59126948219654
H        -3.23014686728520    9.41962378088014    7.24576808998390

