31
CSD_code = QODLAZ | q = 0 | S = 0 | Stoichiometry = C13H12Cl2N2OZn | MND = 4
Zn        3.32686924339028    3.32868863714807    6.71835026187296
Cl        1.59296113445108    2.17511307143037    6.02910648776673
Cl        5.08487241439536    2.81435960641324    7.94880357692581
N         2.74756726716921    5.24668406679346    7.44587857461998
N         4.09791842671747    4.60318037200967    5.16309338494433
O         6.59753112162117    2.54974545197655    0.68826238061114
C         2.10849024206859    5.55640697339644    8.55843485107639
H         1.70406792353436    4.72614116217329    9.12064953542382
C         1.95477862049610    6.86553815505712    8.99366609053676
H         1.42607969704006    7.07517517337863    9.90926148819641
C         2.49660578180930    7.88701728807087    8.22737472113568
H         2.39813004227902    8.91768264385347    8.53351724430772
C         3.16714358805321    7.56185650119347    7.06245074002367
H         3.60373518873323    8.32790868398931    6.44012304507890
C         3.27873739884825    6.21812398041178    6.69568515493003
C         3.97958450576572    5.83451262708511    5.48859692936445
H         4.39730178933345    6.65185358269230    4.90100186057098
C         4.73310825259814    4.13979451774210    4.03434423941521
C         5.19909753555886    4.94694148373017    2.98146608003176
H         5.06638273449571    6.01725913737680    3.00750588114433
C         5.80990488362526    4.38171610499066    1.89158709478395
H         6.16531603888186    4.98944001748054    1.07438668872038
C         5.98688165225159    2.99258285537034    1.80249532897393
C         5.52374407113090    2.18454866594871    2.84288450476062
H         5.63984627588219    1.11355475222533    2.80793388909460
C         4.90469860422021    2.75549239033854    3.93211568898463
H         4.54410397827155    2.12889404981375    4.73774346534576
C         6.78528232344149    1.16170305319244    0.51260782885002
H         7.42641333637982    0.74363456970013    1.29389965110006
H         7.27524879107239    1.05225176015987   -0.45327194018554
H         5.82969713648398    0.63009866485745    0.49684527159400

