63
CSD_code = QODLED | q = 0 | S = 0 | Stoichiometry = C26H28Cl2N4O2Zn | MND = 6
Zn        2.99396754153661    7.29850838355542    6.10799211144623
Cl        4.54638231852762    6.75827077674111    4.46830355492840
N         3.91608768156963    5.85610164613759    7.48792145849585
N         4.66609096971498    8.42619095915410    7.18924621528653
H         5.42055750015740    7.96634473238643    6.68187258061985
O         4.95485844134357   13.87789271083843    6.07528090479302
C         3.80498502940639    4.53649009065235    7.44064059904532
H         3.37624726067964    4.12925482227476    6.53813982508746
C         4.21763146317834    3.71330094476714    8.47298224929318
H         4.09876325981726    2.64478853931230    8.39475454811407
C         4.77765894623163    4.29629047729320    9.59931676800811
H         5.10714324965269    3.69067795726932   10.43052211766782
C         4.91825759050585    5.67173088011263    9.63380246089545
H         5.36164758784209    6.16431738486065   10.48562721456143
C         4.47484851960332    6.42386878845927    8.55117669050534
C         4.57969546459718    7.92012042377601    8.55013558215066
H         3.65131396999580    8.29631789929652    8.99563063533365
H         5.42954358779054    8.24515019621666    9.16744235327944
C         4.75310130178925    9.82145187426510    6.99610042360699
C         4.14933152453694   10.73910163163987    7.84513948914026
H         3.60713079577275   10.40903059680195    8.71630677956824
C         4.19714848331502   12.09809531573292    7.57165784977176
H         3.71165441061850   12.77675759267742    8.25484415164659
C         4.85336612372570   12.56471010960319    6.44092077313307
C         5.46279276724743   11.64363001331256    5.58656428229902
H         5.97044323577518   12.01277893307435    4.70996234796214
C         5.41854347722179   10.29656692477005    5.86388998119931
H         5.87722246701045    9.59136756753793    5.18646092291422
C         4.38011684842481   14.84966947387382    6.91260068534380
H         3.29597952970160   14.71944855500150    6.99813580171508
H         4.59014503968540   15.80801822440661    6.44001925214568
H         4.82645428694073   14.83516616280555    7.91247646971686
Cl        1.44137376584023    7.83871527119598    7.74752671876393
N         2.07183837427303    8.74089886245661    4.72804373311878
N         1.32184562129646    6.17081295283285    5.02673178860590
H         0.56737921368173    6.63066157824924    5.53410407787277
O         1.03305361530287    0.71911050892663    6.14068964974494
C         2.18293979577064   10.06051043436209    4.77532113845584
H         2.61168136145212   10.46774709135991    5.67781927337179
C         1.77028735030406   10.88369703860203    3.74297905712487
H         1.88915593631756   11.95220946270105    3.82120389745573
C         1.21025477917251   10.30070549045228    2.61664798936852
H         0.88076796571733   10.90631624441697    1.78544219022408
C         1.06965862508134    8.92526457470478    2.58216516232700
H         0.62626384514774    8.43267637562424    1.73034357536569
C         1.51307571384832    8.17313024290457    3.66479082778839
C         1.40823957217179    6.67687807938663    3.66583949435804
H         2.33662314552696    6.30068216305027    3.22034506332630
H         0.55838885737376    6.35184518484418    3.04853608222264
C         1.23482616556452    4.77555077698674    5.21987499658440
C         1.83858286463794    3.85789876221178    4.37082902693069
H         2.38077635158542    4.18796759174032    3.49965634920043
C         1.79075950900785    2.49890486695054    4.64430806783633
H         2.27624662919600    1.82024010358097    3.96111945357058
C         1.13454756540657    2.03229237002917    5.77504925460513
C         0.52512894583169    2.95337403171382    6.62940973681256
H         0.01748497730471    2.58422588965039    7.50601557105735
C         0.56938315883387    4.30043715379600    6.35208535991333
H         0.11071174364107    5.00563822982171    7.02951755860912
C         1.60778731256073   -0.25266870551925    5.30336718929077
H         2.69192410141436   -0.12245049827308    5.21782400762744
H         1.39776064546228   -1.21101632469926    5.77595169250296
H         1.16144181735752   -0.23816639266466    4.30349493629128

