89
CSD_code = QODMUS | q = 0 | S = 0 | Stoichiometry = C40H43Cl2NP2Ru | MND = 5
C         3.55311348580035   13.40874675590695    3.50247936448641
H         2.83341557682445   12.58945980082923    3.43499814864606
H         4.13309253587402   13.44368382270546    2.57306753783091
C         6.62126359993854   15.61413909494974    3.43326315869039
C         7.36651146049017   14.64166971585530    4.09684442424574
H         7.51971485972354   14.71619837571762    5.16518236847965
C         7.91934116268456   13.58458940835950    3.39781644290240
H         8.49508277535751   12.83764227475849    3.92508392954260
C         7.73279737218414   13.48108164155443    2.02912479724266
H         8.16211049045091   12.65279531074505    1.48525002545279
C         6.99795506282602   14.44640485737700    1.35986105865279
H         6.85612815615710   14.37376198129420    0.29095595508757
C         6.44116049112232   15.50294273408327    2.05719377703348
H         5.87265357726659   16.25934556414847    1.53478412501939
C         6.88583532084465   17.47063436234862    5.63202139395029
C         8.26458484792757   17.31337038192669    5.55233719311016
H         8.70772979558310   16.78127205677224    4.72255974581719
C         9.07566168721800   17.83896868634853    6.54262571424435
H        10.14619658894154   17.70513642979169    6.48213324670300
C         8.52381195923554   18.53740789343367    7.60359817878149
H         9.16376020804045   18.94150286142965    8.37419395988236
C         7.15283644816235   18.72795427335587    7.66815245083558
H         6.72031497748345   19.28891665798386    8.48356043833448
C         6.33665984110881   18.19956607010596    6.68587143656505
H         5.26213456335537   18.36056025072660    6.72177552306807
C         5.78761642879415   18.35340613837678    3.31406914467224
C         6.92529004853496   18.61641313837436    2.55540750368512
H         7.74091695024558   17.90669341982747    2.53529882741140
C         7.00812346740404   19.78602899929459    1.82451645083254
H         7.88899787862938   19.98642770437688    1.23153753384297
C         5.96939550066001   20.70371833913861    1.85754555138076
H         6.04202527605382   21.61779140619962    1.28637073878114
C         4.84680909933705   20.45152796978230    2.62755946918731
H         4.04148969426152   21.16998919674284    2.66325208439372
C         4.75222747450277   19.27983626862542    3.35845033211152
H         3.88339042883259   19.07400185555638    3.96967158658145
C         1.82207446163712   15.54481809246318    2.22150836114539
C         1.96297482867585   14.75304057791057    0.93507584767173
H         2.05444178742631   13.68527998299073    1.13343308892921
H         1.05417509428872   14.90409728938208    0.34392622768314
C         3.17272508849742   15.20705005412089    0.12254894547091
H         3.21591491635587   14.64559438505588   -0.81375709181837
H         4.07963977842460   14.99022572044585    0.69127894982525
C         3.10306811166586   16.70201813596599   -0.15874463699022
H         2.22717308599427   16.91839978525087   -0.77467737084119
H         3.98851657126712   17.02143448447174   -0.71289814146555
C         3.00546041450956   17.46375186775748    1.15557403712303
H         3.88608137966629   17.25233897331056    1.76889166637987
H         2.97533843231867   18.53885466403744    0.97188231356490
C         1.77947822651616   17.03913714382367    1.95589550176842
H         0.86569351444462   17.29076534053487    1.41040062297564
H         1.78458835221548   17.58766409905950    2.89908012561796
C         0.91889269566760   14.97424533185708    3.34453881554153
C         0.22031104011023   13.64880690108940    3.10928279405961
H         0.87926378160554   12.92255547642752    2.63158276680625
H        -0.62111884520724   13.82304948980573    2.43072591531098
C        -0.30129271910149   13.07216436854168    4.42234871777430
H        -0.75938780028620   12.09651959151559    4.24254558515914
H         0.53818922047611   12.94022537660650    5.11021668032628
C        -1.30508244972462   14.03282875379103    5.04377191627353
H        -2.14228688272988   14.18470841417033    4.35647836341972
H        -1.70111955905518   13.61502894109647    5.97085815796236
C        -0.61052694497681   15.35595794074217    5.33023863482638
H         0.17817983176256   15.18908517693011    6.06352437155430
H        -1.31573672811854   16.07366571358656    5.75312551866932
C         0.01679764606505   15.95905407775106    4.07508005869069
H         0.59155228571173   16.83419474465408    4.38476267734066
H        -0.76739130662394   16.28728630394318    3.38497922681670
C         4.47962363897270   13.16777924222305    4.66069901960869
C         5.07358862862393   11.90664195049271    4.82087717947116
H         4.84949013511417   11.13294797102952    4.10231339188069
C         5.92343682995455   11.66788360702994    5.86837822572692
H         6.39746422959024   10.70702727169961    5.99852588236797
C         6.16075307580221   12.69721772024209    6.80297564929048
C         6.99745010222379   12.55407569241433    7.92639809692157
H         7.49449430837257   11.60764636647231    8.08206032304128
C         7.17179969332823   13.58989445289966    8.80499316607457
H         7.81621032437705   13.47205655783743    9.66313630650945
C         6.50403620624088   14.80624449952826    8.61040270262279
H         6.63166500736971   15.60764323042661    9.32227687655978
C         5.68624075900781   14.97711436240986    7.52489081860088
H         5.13644962661465   15.91732755190188    7.39856946202003
C         5.51048640402383   13.93961900885430    6.59083692519265
N         4.72227547747845   14.16074031586771    5.50329344462911
P         5.69800968423117   16.87004876209769    4.37507468461877
P         2.71451887096542   15.05126009652209    3.75144306350918
Cl        2.42201047110898   14.99719460121908    7.02645981599696
Cl        2.81170179543301   17.99931369492138    5.82803218963014
Ru        3.86915832999464   15.94709014605436    5.45787051069335

