88
CSD_code = QODMAY | q = 0 | S = 0 | Stoichiometry = C37H45Cl2NP2Ru | MND = 5
C         0.00123004314948   15.88046768277053   11.95215007809646
H         0.51920038577362   15.54930021871774   12.86747544830740
H        -0.76148675217037   15.14070110409529   11.71405590232722
H        -0.49275056819630   16.83238392423442   12.15975595721199
C         4.60285298422786   16.19772517013100   10.45176916223189
H         4.85292969868057   17.21082323438142   10.78849459787941
H         5.24556523497627   15.93882845244921    9.60935763122963
C         3.15287032477160   16.17182512678787   10.07715025874415
C         2.73892628019988   16.37531267502085    8.77193255112618
H         3.47424953668633   16.51324370613579    7.99457951337688
C         1.38394460545600   16.39720345362355    8.47920501637448
H         1.03935330640466   16.54401719595635    7.46774658165583
C         0.48584314887227   16.23026824334996    9.51881646439983
H        -0.57857598136662   16.24862727132494    9.34347695444905
C         0.95886123975661   16.02339040271453   10.80616679219646
C         6.31495062508348   15.88748367283730   12.74806928929348
H         5.88264456856385   16.81055233253373   13.16714276586530
C         6.82805185705174   15.04415489302087   13.91309271530412
H         7.31870391800738   14.14832051121602   13.52695694694390
H         5.98805136819951   14.73738231325398   14.53996424303291
C         7.84474557962982   15.84667526741398   14.71940026380911
H         7.36412288495550   16.73693133711232   15.13080570195287
H         8.21052832467146   15.24743410081325   15.55472191669971
C         9.01137095643248   16.25760581297277   13.82488784894075
H         9.72541346772696   16.85767281159372   14.39242422225585
H         9.53184794558915   15.36299368946052   13.47515435789505
C         8.51277879026936   17.05279624355000   12.62159135413981
H         9.35264900665926   17.31149955030985   11.97274830353478
H         8.05930512735316   17.98455920762705   12.96830509232421
C         7.47638693193433   16.25676041969708   11.82764996414725
H         7.94305457155834   15.35032930636553   11.43631721277059
H         7.13466491449844   16.85507699596195   10.98118434897237
C         5.41670066253874   13.47384432857779   11.24706787108819
H         6.48018743146248   13.58505274818114   10.98965167747282
C         5.24263265091234   12.39608919396562   12.32157259473008
H         5.80137870199156   12.65172660629385   13.22210572890892
H         4.18662724143516   12.35233801351098   12.59485031954155
C         5.68372499983818   11.03303473675212   11.80074800950969
H         6.74843339245091   11.05854580700748   11.54892377743114
H         5.54167869616615   10.28364004741849   12.58115268694017
C         4.87496015179107   10.65945119925495   10.56418737664519
H         3.81920521167376   10.59949056979088   10.83293520118969
H         5.18730156722881    9.68317779031559   10.18691071757681
C         5.05628654823252   11.72058989345514    9.48531961657313
H         6.10856037107404   11.76185384211502    9.18782281902179
H         4.46894264730116   11.46147048565874    8.60182160051871
C         4.61875282732188   13.09009192332349    9.99963703386719
H         3.55853651648216   13.05750839425648   10.26191285281912
H         4.75260894817967   13.82846926440170    9.20557560070741
C         4.09695781095077   18.01604295070371   15.14007835373485
C         4.69104287011233   17.08720570270183   15.98466214434357
H         4.57319894210818   16.03353633127400   15.77486444291186
C         5.39661703598010   17.51702754866396   17.09638762978114
H         5.85826564943515   16.79095932972541   17.74883929002100
C         5.50562939697054   18.86887767131978   17.37183447972965
H         6.05829837515269   19.20439041366166   18.23731179290654
C         4.89292756256995   19.79648931942100   16.54226879054175
H         4.96368888411561   20.85159855408882   16.76491327555015
C         4.18458164308146   19.37562689157703   15.43372776266921
H         3.69987131431237   20.10100630773927   14.79470062844188
C         1.47375070702157   17.94207239812237   14.39448190767958
C         0.83358283527043   16.98152821421246   15.17722295803035
H         1.30948283565760   16.01569564750908   15.33308236149317
C        -0.38669007070765   17.25979109577452   15.76394274002199
H        -0.87772170260341   16.51083112220603   16.36747157431898
C        -0.97713809742956   18.49924852424147   15.57505518395079
H        -1.93409095652290   18.71751773912563   16.02578799283749
C        -0.33607149551231   19.46237692825777   14.81336881886472
H        -0.79113388935722   20.43273906998060   14.67467508077854
C         0.88898792645096   19.19243869915815   14.22863294697075
H         1.38209892150101   19.95406758015913   13.64080128571665
C         3.45443929213271   18.71368937318583   12.45969533896872
C         4.71941766618349   19.28516762660107   12.34067667026094
H         5.47403715084601   19.07600763047420   13.08644082960081
C         5.01218511925102   20.12802141059873   11.28365343164593
H         5.99499404373410   20.57014302957529   11.20665686884706
C         4.05118324718450   20.40179936513277   10.32388976942129
H         4.28256633660067   21.05643195541612    9.49700237946778
C         2.79139760995031   19.83521992759681   10.43052064665362
H         2.03746689016526   20.04629063171804    9.68603800216314
C         2.49612116187470   18.99547401003103   11.48811357610153
H         1.51007131811519   18.55828566089211   11.56790635831821
N         2.27072200371568   15.98506518453456   11.07396097474029
P         4.84704350275440   15.10074274848528   11.93195537064679
P         3.09994345336343   17.44213894557133   13.71919230342913
Cl        3.21200973921829   14.25071770434903   14.93000050370107
Cl        1.88898782911704   13.29355020516099   12.16364025380399
Ru        2.83037424581821   15.31286537939931   12.87970033894938

