66
CSD_code = QODQAC | q = 0 | S = 0 | Stoichiometry = C26H36NScSi2 | MND = 13
Sc        9.55461328844730    3.54698746800750   12.04125810825242
N        11.50526635529748    4.19657416184176   12.00152805918156
Si       11.88234789881603    5.85012904887938   11.69630221576099
Si       12.71669735823751    2.98373686102564   12.17386077251643
C         6.76080403224495    5.25138425268661   10.64029241800683
H         7.19457927330244    6.22779002022870   10.85566748990014
H         6.08258129675778    4.97586863279794   11.44550976241784
H         6.17200717397366    5.34136229396110    9.72472694608590
C         7.82573098642172    4.20756830320268   10.44574456674932
C         7.65086128086623    2.81829397378033   10.60859232216997
H         6.73179574314632    2.33074994157271   10.89732646801208
C         8.78769656949720    2.15715363520270   10.05680591857023
C         9.06350803633316    0.80229688101494    9.81003232760319
H         8.37699045280176    0.03873447875845   10.15187811502183
C        10.19058783687437    0.47193773379207    9.09396072792280
H        10.40434681674535   -0.56518922682698    8.87936920176077
C        11.06466387757742    1.45933368782625    8.61641239433813
H        11.92948919779719    1.15638559516951    8.04396517370424
C        10.83082854036432    2.79559841150478    8.84415314203377
H        11.49446424711217    3.54821050040332    8.44303913748823
C         9.68791364775682    3.17502290283766    9.56329179532432
C         9.09463740732325    4.44348657108468    9.84981149683249
H         9.41721736850440    5.39069680698163    9.44025260919135
C        10.38446628093509    5.01942655309245   15.14794914657597
H        10.47334737301419    4.71754317135059   16.19314429114902
H        10.01849126246258    6.04317777067858   15.11892579528891
H        11.37332954863533    4.98247900595070   14.69475120698124
C         9.43972914853962    4.09595773792089   14.43910847567120
C         9.65993932045182    2.70745590733643   14.24392826140222
H        10.49604843200401    2.15197891303895   14.64868479322949
C         8.42885845971979    2.13149454901321   13.78563568526599
C         8.01866285899368    0.80386857444105   13.58217857108875
H         8.72969543766528   -0.00779703785417   13.67528036270381
C         6.69181668342929    0.54812493374889   13.31781909117472
H         6.35983974617455   -0.47015384856194   13.17633136894442
C         5.74915112074767    1.58280881339521   13.26057445453485
H         4.71149386558528    1.33703467454454   13.08680272642722
C         6.11908891091414    2.89740029423889   13.43777947555616
H         5.37591859113497    3.68358361478453   13.41993347945102
C         7.46415498867501    3.20173259812800   13.68215642853625
C         8.13241017546670    4.41531948067099   14.01952048825830
H         7.64466873392018    5.36870825565269   14.17314154915626
C        10.23552294572926    6.79515358608153   12.02238111504640
H         9.41448422259858    6.08368750739525   12.20245857351620
H         9.96251557424785    7.42287171267729   11.18020053497519
H        10.31397312303245    7.44137635968193   12.89013350981273
C        13.23623441263647    6.59066656708360   12.82561957244410
H        13.01123427364429    6.47406776012068   13.88004899328747
H        13.36428521030006    7.65067395219060   12.63192785362702
H        14.18767732152761    6.10608920065018   12.63646563074489
C        12.46158946661241    6.24283152334093    9.91212308025819
H        13.41125705295718    5.76117971778302    9.70784247781785
H        12.60005805359868    7.31106270961532    9.77508343689908
H        11.75645340707935    5.90305846225127    9.16134838143047
C        11.76498503296839    1.31397926519464   12.06723669044861
H        10.67878918289050    1.48861321531747   11.96234169585594
H        11.92521800347439    0.69975736067682   12.94785442058657
H        12.08478837581016    0.73632702411996   11.20691717269661
C        13.62322354168084    3.02432555267672   13.86560018259438
H        14.19108846353782    3.94131917195660   13.97550323664895
H        14.32076590467264    2.19664984039527   13.94921256377239
H        12.93770275356549    2.96256174149061   14.70494957150393
C        14.07933036387873    2.98995975528123   10.83788899591785
H        13.65683684725836    2.95639570675195    9.84018615901858
H        14.74137432606253    2.13730663668749   10.94812228785267
H        14.68327251556330    3.88732877327445   10.91402704300542

