61
CSD_code = QODQIM | q = 0 | S = 0 | Stoichiometry = C33H18F5N3OPt | MND = 4
C         2.55790660445969    8.22138973652453    6.63103998271167
H         3.39894128294996    7.98452135802756    7.27064291288446
C         2.69150745402485    9.18996978580938    5.63658580335044
H         3.63764210101548    9.69243081738386    5.50964074273067
C         1.61457346227397    9.49048255666838    4.83306980911285
H         1.69071597149712   10.23710327974056    4.05602073786222
C         0.40483817179768    8.81170417923547    5.03470995897103
C         0.36317440840344    7.84273773637687    6.06016801021968
C        -0.77752655082721    9.03863310425217    4.27330197339143
H        -0.74094915962875    9.77848601499795    3.48680281189049
C        -1.91652365330097    8.34777076343210    4.52845938351881
H        -2.80685787984791    8.53222441845951    3.94381756089148
C        -1.98472796111381    7.36514857619551    5.55896884465502
C        -0.82914977294684    7.10902839946471    6.32648400042950
C        -3.14324761768001    6.63291517053338    5.85231089240656
H        -4.04317774029862    6.80809540548792    5.28056470218026
C        -3.12209068431555    5.70092911873347    6.86254359385586
H        -4.01805107672143    5.13960527909516    7.08741071876792
C        -1.96468287725505    5.45578077287957    7.60997437361936
H        -2.00691676240069    4.70710458333303    8.38915030110680
C        -0.79006281664222    6.14571767693846    7.36560491771420
C         3.49231173943101    6.36840652454563   10.08803447011751
C         4.70664490188171    4.77592352701991    9.37193547219818
C         3.00142537300249    7.44306319081103   10.91346705597518
C         3.74974308407462    7.88604561645949   12.00606253551448
H         4.69756963736806    7.41876426432781   12.22771525033701
C         3.27099036383792    8.91395583203613   12.79353443354854
H         3.84848560189061    9.25406874890754   13.63993839312297
C         2.05021001324808    9.50334146975023   12.50261070961042
H         1.67788647351998   10.30292875706518   13.12507176033602
C         1.30289176066587    9.06201546420035   11.42049488269496
H         0.34742574790832    9.51313050125495   11.20276686460759
C         1.77023604081362    8.03752734512603   10.62318301154001
H         1.16909608431502    7.66745306670990    9.78662942942507
C         5.77105276475411    3.80518897440919    9.30429365387323
C         6.79622136869906    3.80213110102623   10.24960533241133
H         6.79676676760316    4.53557899557550   11.04193794536892
C         7.80256334183879    2.85967749459515   10.16263412753546
H         8.59890262399276    2.85644456979357   10.89100686726300
C         7.79133400906119    1.92184398706746    9.14169567638091
H         8.58073596520022    1.18804898887930    9.07812293768081
C         6.76995789177960    1.92279943703261    8.20240569439655
H         6.76293079475986    1.18810093517587    7.41179627682627
C         5.75854557763473    2.85945486463578    8.27743541909842
H         4.95082542784225    2.87711224354506    7.56317511052677
C         0.60333106888424    4.46287303191793    9.34398275688108
C         0.20888457494637    4.48226092285293   10.67812905030609
C         0.04315620070192    3.33376518690175   11.44285847061591
C         0.28208741254591    2.09141579644990   10.86833590033030
C         0.68333914901514    2.02078684853058    9.53821470156433
C         0.83273443548619    3.19425101539937    8.81236656996930
F        -0.01465631391093    5.67827917952678   11.27205173577539
F        -0.33200476073000    3.41271436949833   12.73099108405904
F         0.13575598993585    0.97082641013428   11.59274787404042
F         0.92999247104002    0.82365084355259    8.98073189170381
F         1.23247789315134    3.11261859196737    7.52636720599222
N         1.43146707899221    7.56453446403150    6.84213865810327
N         2.97122722556136    5.92635372711478    8.96711191027074
N         3.73669633779763    4.92341496665604    8.51940406686784
O         4.60741279627037    5.67233159756911   10.38395240841363
Pt        1.03551018176890    6.04683841439896    8.17629037242805

