58
CSD_code = QODQOS | q = 0 | S = 0 | Stoichiometry = C32H16BrF5N2PtS | MND = 4
Pt        6.11832991397968    3.51797429096795    6.71760046537314
Br        2.13421530543298    9.38449595026282    6.28552513152443
S         8.98022814643318    7.20528386611275    6.27150721117159
F         7.96364906448592    3.36607647847229    1.66269834732134
F         5.70853664028825    4.50535394638567    0.61002514239952
F         8.12595359866849    2.87900793819710    4.31965226498400
F         3.78512804173116    4.61911321324146    4.91683493451250
F         3.61946792179971    5.13515112204707    2.26391676250792
N         6.18283589179314    3.22582497933422    8.76521490092346
N         7.57002361242849    5.09733274318085    6.73212560729041
C        11.57169386823459    4.12562255020147    6.72775987986373
H        12.62504497514858    3.89156776219715    6.71806238088237
C         4.86282671082152    1.95657891714321    6.78845371765174
C         6.99413663208572    3.43502360416378    3.82914184230751
C         6.19310558716770    7.08463935385286    6.44975654736240
C         4.72865402286433    4.57144064531126    2.76770114367447
C        11.16832842966405    5.42762401299701    6.50648127549182
H        11.88286860859396    6.21429737355195    6.32353005750081
C         6.78921323159469    3.57375933035816   11.04505468522808
H         7.36206679809507    4.15247679504314   11.75234821397828
C        10.64518409548945    3.10659496517718    6.95353992951506
H        10.99643051866263    2.09888133349243    7.11120434924099
C         6.93083380926542    3.67589221546355    2.46282433716693
C         4.94614798245220    9.08826043120380    5.95057987089369
H         4.91033445875121   10.10796702209756    5.60007268906490
C         5.96569200506998    3.74146260985883    4.71753359832028
C         9.80944764903956    5.69655301202053    6.51951182536326
C         3.80633630001073    7.13431566857734    6.79906269216694
H         2.89391281044743    6.64139788855435    7.09448956312418
C         5.00747021586045    6.45993486575345    6.85316806366790
H         5.02249278501354    5.42183406106503    7.19787774639996
C         9.29382672989441    3.36702294449898    6.96800731128250
H         8.55423412215212    2.58604023895277    7.11436497688953
C         3.78262269742713    8.44568084175303    6.34889091171656
C         6.14419949808008    8.40813106535369    6.00277864304395
H         7.05206105456539    8.90067450951955    5.68658301517839
C         5.99521930905383    2.52761659069609   11.45898129081742
H         5.92681606698868    2.25992602994998   12.50316829949784
C         4.68730297095078    1.51116526046903    8.12221039771442
C         5.39472388358990    2.19624162998039    9.15241752333785
C         7.44905096514803    6.37056347324882    6.49965464874674
C         6.85482221422381    3.89078913629160    9.68930367977888
H         7.47818821215081    4.71231162220600    9.35810890925198
C         3.73865146514548    0.05318858604261    9.83362513829297
H         3.09384433218970   -0.77810335990332   10.08116198574294
C         4.17050231690654    1.26785036179149    5.80899018385236
H         4.26173677061463    1.55127763610244    4.76984197385898
C         5.78755665874607    4.25407294865446    1.92460554574762
C         4.83686637457107    4.30729905878556    4.12628270280093
C         8.86839645155426    4.67638880883462    6.74908333996005
C         3.33594530245133    0.19150211238150    6.12983154358805
H         2.81128821160239   -0.31732849887486    5.33372366520436
C         5.26772850733754    1.80551965234547   10.50322774755805
C         4.41345983833121    0.70816055602708   10.81081326974016
H         4.31884701616604    0.41293651844059   11.84560213611657
C         3.85034680159909    0.42712295438390    8.46268180778758
C         3.17028998768608   -0.22889507883921    7.42788200001978
H         2.52188260951282   -1.06099454540546    7.66082217565635

