58
CSD_code = QODREJ | q = 0 | S = 0 | Stoichiometry = C32H15BrClF5N2PtS | MND = 6
Pt        2.09100644500545    4.14449287746903   12.53875711811101
Br       -1.13161224222260    6.27545026183342    8.05502933388216
Cl        2.53971413488753    2.74156964517455   14.44804680862135
S         4.67699563876930    7.94086161975063   12.07151357355151
F         5.15724269464751    3.40731451013301   12.95148124234318
F         6.99539981791505    2.26284944580475   11.40942592142606
F         6.38288779994412    1.48229914793255    8.85354019364422
F         3.84647332503689    1.91387398427750    7.90576573409002
F         1.99626721142354    3.04696325902839    9.44387966422161
N         0.64346182499659    5.05414646958659   13.75350861795647
N         3.55046747480047    5.79750401995369   12.95035391958745
C         0.61163177309949    2.79878892398371   12.23464253947284
C         0.61071054029968    1.58825630580987   11.58392676964719
H         1.50138506589642    1.19976271927507   11.11491324099923
C        -0.55806940200914    0.81813849099347   11.52946860565703
H        -0.53389317180707   -0.12134603726155   10.99784749537978
C        -1.71834279464635    1.23029188845779   12.13804001328522
H        -2.61170969549080    0.62617801851000   12.08558507474557
C        -1.73947680937336    2.42838039621371   12.86487880946301
C        -0.55921196804752    3.20363984661574   12.90509221591241
C        -2.88078812260198    2.88359969391698   13.58812322137999
H        -3.78421066940727    2.29428523548356   13.52924221321911
C        -2.84347748012712    4.00504404868847   14.34888181079689
H        -3.71030760312378    4.32756201652084   14.90622635253213
C        -1.65299943161888    4.78035976909739   14.45420320864527
C        -0.52306693195402    4.38046384170773   13.70696867779544
C        -1.52142264735778    5.91183824604958   15.26994491235901
H        -2.36130435726669    6.25050963935173   15.85845413562297
C        -0.31114667667299    6.56682708480829   15.31911575166345
H        -0.16934109671894    7.43072723928821   15.94870030971700
C         0.75032733530777    6.10525863831871   14.54280358444436
H         1.70776321699241    6.60835110972350   14.57615725425997
C         1.61750566165479    5.45402411844801   11.04099396371249
C         0.54478050646822    5.38316456336686   10.17043589141230
H        -0.14032845820173    4.54865096895839   10.20236408414055
C         0.36003974042399    6.38208052709771    9.22538933144480
C         1.22815652023250    7.45854766058524    9.11394153233424
H         1.06814707669549    8.21213971739622    8.35892423508519
C         2.28815242128695    7.55114600084709    9.99026134109751
H         2.96929761790073    8.38812594457256    9.93617513180020
C         2.47654557067153    6.56578690892986   10.96073970825914
C         3.50015747424097    6.65783949527764   11.97179043840834
C         5.25289010773644    7.24974760213574   13.56482684160281
C         6.26308912071704    7.70160565094862   14.39654172830553
H         6.82784058658465    8.58541299797188   14.14529718481883
C         6.51854430670271    6.98563279028165   15.54976804251217
H         7.30268606432128    7.31698816045217   16.21320187692205
C         5.78168123286322    5.84535006607842   15.87014466779750
H         6.00607524648388    5.30969996847111   16.77934205722058
C         4.77687594079962    5.38790961090977   15.04707550050296
H         4.20770996575703    4.49843718074682   15.27002739776379
C         4.51054142866099    6.09216773108800   13.87397629581711
C         3.46754178908607    3.24876492406528   11.29809932056049
C         4.77725841432829    3.02514616932071   11.72441039282472
C         5.75794279934754    2.43754989651229   10.92914589127956
C         5.45449855929153    2.04549993867516    9.63273960410590
C         4.16793307593417    2.26442868740357    9.15780044272283
C         3.21638403143556    2.85521036296264    9.98296877311556

