57
CSD_code = QODVEN | q = 0 | S = 0 | Stoichiometry = C22H28N2PtS4 | MND = 4
Pt        6.14935813861453    3.99976808999151    5.77114961181279
S         5.92557790483275    4.03859407573086    3.51162257622141
S         6.14616226217370    5.88931223340466    1.30092713713155
S         7.02228492044174    8.29926071780000    3.69223363781255
S         6.66537683977749    6.20811746095510    5.66299427941667
N         6.32368454091348    3.83543561291484    7.76777475107488
C         6.27086330738011    5.68105153712287    3.05073431701182
C         6.16353989308648    7.70432708497562    1.14526221222931
H         6.24613995542003    7.89123585161280    0.07443987000013
H         5.21496940145985    8.09713214040446    1.51299113437855
C         7.33138402253634    8.30310800474656    1.89712049193976
H         7.46947008759100    9.35312949066057    1.63910042729638
H         8.25224984223668    7.75343068875306    1.69899232913854
C         6.61398467270697    6.60257966912117    3.96860779198920
C         6.62269314486893    4.81645364306244    8.62410478410558
H         6.78442731953758    5.79526453618752    8.19205331215022
C         6.72816517806069    4.62084627790071    9.97901152722959
H         6.97425076422475    5.46205859611966   10.60503655771509
C         6.51969184419037    3.34525118018465   10.52880598648050
C         6.20392653372767    2.33816914324081    9.63748058898207
H         6.02523267644467    1.33709895529123    9.98755084325079
C         6.10843881516668    2.58975939776843    8.26499674241237
C         6.64303125383696    3.13287791425175   12.02443872607103
C         8.05723667486260    3.53528428892554   12.46612764614662
H         8.80069546586699    2.93533401499112   11.94558928755471
H         8.17158571257187    3.37428553337225   13.53544360297318
H         8.25644806521257    4.58228173158913   12.25726678550426
C         5.60432135161199    4.01308847322952   12.73377628559605
H         5.76493375550773    5.06592797885539   12.52035404575181
H         5.66883863536582    3.86954040067620   13.80975236462641
H         4.60002371423045    3.74808734417996   12.40990892663149
C         6.40526156482195    1.67670103389734   12.43225384953091
H         5.40031591028170    1.35409467015851   12.16931237418754
H         6.51476179327560    1.58180026744153   13.51012010234905
H         7.13019964174126    1.01522903114688   11.96310345707067
C         5.78373900212878    1.58644423716080    7.27140332890450
C         5.55016086326101    0.23791426328072    7.55973413317615
H         5.61607258143463   -0.08510850021788    8.58342920557317
C         5.24541100735050   -0.66479068776933    6.55940878769520
C         5.18100483070752   -0.14984592137661    5.25421339654802
H         4.94480623649362   -0.78546896621938    4.41739533181876
C         5.42225776226721    1.18181836562666    5.02261782407105
H         5.37834916322053    1.58588370787668    4.01977649130728
C         4.98742054859771   -2.13740478002751    6.80884912033162
C         6.00339480441476   -2.96017571837718    6.00393820885283
H         5.90642377691544   -2.77862918177115    4.93751696864830
H         5.84699820851318   -4.02115108284119    6.18385596293963
H         7.01786988936239   -2.70541868568327    6.30328026985339
C         3.56198366973887   -2.47288055971315    6.34792478165031
H         3.43136843513117   -2.27607649073470    5.28773711235990
H         2.83679280207618   -1.87699628758810    6.89811204376464
H         3.35172048023338   -3.52450393360519    6.52781534368038
C         5.12140269888842   -2.51490909713159    8.28625200118588
H         4.93299624753413   -3.57947072727137    8.40480543113099
H         4.39808641531241   -1.97812863396876    8.89603442321897
H         6.12458178119094   -2.31021346854692    8.65357012898000
N         5.72163319065026    2.04759507823546    5.99519134053649

