65
CSD_code = QODVIR | q = 0 | S = 0 | Stoichiometry = C27H30N2O3S2W | MND = 7
W         6.02382645809977   18.17871979831286    4.26149548619335
C         4.24177531966360   16.15398223036407    6.43806410075017
H         4.14333292288773   16.30390056534796    7.51645799038910
H         4.81590034328029   15.24631007404785    6.25120869456582
H         3.24374279384017   16.00123857396386    6.02214012729369
C         4.86006676621097   17.34261982063870    5.79495235662872
C         4.87820185620012   18.63547625181680    6.00410868580701
C         4.34323134662232   19.60329033317525    6.99830826134629
H         3.31157846063081   19.85495432115632    6.74514445918417
H         4.91584760138375   20.53062371597937    7.02372570962691
H         4.34665015311876   19.15393910969616    7.99392017269895
C         5.82648583802832   20.09724931886065    4.52000254663793
O         5.75496029094368   21.21227821379119    4.83921682482629
O         9.84186481851996   19.61972874273140    5.72648084879409
C         8.77281613778071   19.46006335862035    4.92180166656773
N         7.97952727187005   18.48023357182177    5.22539152363415
C         8.60226767493757   17.72244344303733    6.32354016132672
C         9.72073324459337   18.68421333213727    6.78479520047628
H         9.45253529758569   19.22421264402107    7.70119306985567
H        10.68192444617846   18.18719935174589    6.92492925644980
C         9.20310997934140   16.43156261303441    5.76139456053839
H         9.67493314210496   15.86426640251603    6.56019673784419
H         9.94569433086330   16.66288940427041    4.99946945439813
H         8.42612925060732   15.82317771760309    5.30396934703395
C         7.61258920250215   17.42089532971660    7.44197778290968
H         7.09036404666174   18.32754596898997    7.74535983178970
H         8.14723922499643   17.01394232084998    8.29775276624665
H         6.88466193881560   16.68862827238080    7.10154299940075
S         7.37048691403835   18.55868537234528    2.24219390713782
C         8.02740630202383   20.12383114716871    2.61156901121638
C         8.65756668211098   20.41461883521892    3.84023007236919
C         9.25030661115945   21.67162648308885    4.01929686003857
H         9.72992847169208   21.88073826529817    4.96300911203388
C         9.20433846050085   22.62990894367773    3.03348170551213
H         9.64771274051058   23.59946124025585    3.19993706836766
C         8.58666261503500   22.34014589043191    1.82087559201545
H         8.55156786443684   23.08516216723211    1.03990039070456
C         8.02515827712528   21.10108869551553    1.61226376298848
H         7.55813350502900   20.85953740448620    0.66966628031372
O         2.61940249762068   16.88225549208476    1.81302709709085
C         3.66614435674238   16.76541292200423    2.65430341980759
N         4.26793404377309   17.88077513312426    2.94428497016739
C         3.52147048537319   18.98245519039887    2.31257704369743
C         2.53397852247565   18.23005322148769    1.39496890429007
H         1.50118511564390   18.56740675127599    1.50637919616461
H         2.82097447760763   18.28700233465867    0.33893394345731
C         4.42489244371385   19.91380395887242    1.51129439858966
H         5.07603093744420   20.47645334857371    2.17619987729975
H         3.81298475243288   20.61275482093574    0.94487574191783
H         5.04357302545417   19.33989989864116    0.82333767926811
C         2.75771980652537   19.75191815921484    3.39568360669045
H         2.12017129757953   19.07246763727066    3.96021704155327
H         2.14148510175624   20.52008013472005    2.93432290844345
H         3.45338240732165   20.22604063185078    4.08129550534837
S         6.58617719782436   15.79791612751442    3.68712625649236
C         5.13922258347301   14.90528769297964    3.55265589561794
C         3.89754281211909   15.41694236627575    3.10993309802347
C         2.79700332741198   14.54093265846182    3.03001871215630
H         1.85017998904612   14.94240804397301    2.70272986078303
C         2.89537983873396   13.21814704371450    3.37487916702111
H         2.02927377133815   12.57623171969873    3.32446658475909
C         4.13068583747012   12.70560297979802    3.77921124489748
H         4.22423913172056   11.66007126614215    4.03453871345408
C         5.21941725831680   13.53108417285759    3.85350212276528
H         6.18199037882472   13.15140704922804    4.16237262583234

