79
CSD_code = QODVOX | q = 0 | S = 0 | Stoichiometry = C37H34N2O3S2W | MND = 7
W         5.31403218548417    8.51154032600654   10.96688698742538
C         5.12811237866179    6.57384490822209   10.84282149001713
O         5.03887204452169    5.42938600559505   10.74999878272276
O         5.09776757497074   12.72337626228415   12.13998704760487
C         5.42557245996253   11.41183186448876   12.17193106460768
N         5.08169959309841   10.71700953636196   11.14536241514764
C         4.59289834038864   11.66282398325873   10.12417632062242
C         4.38053118608269   12.95378506523125   10.94479323601827
H         4.78315044163623   13.84148205707097   10.45416537024471
H         3.32626491629873   13.13036203399720   11.19443938765825
C         3.31247020294764   11.24584298617489    9.40892135637700
H         3.48141578523108   10.35047204916919    8.81465450487901
H         3.01270297755255   12.05001995543884    8.73935784559681
H         2.50051908533589   11.06558571175108   10.10936745623949
C         5.71279038458027   11.88872801674342    9.10311480782535
H         5.93955572592315   10.96417265042073    8.58093800065009
H         6.61496394653145   12.23759960382502    9.60304770125962
H         5.39803372775602   12.63153377755403    8.37362991084282
S         5.33909926269610    8.39385997606206   13.44742044677066
C         6.22982759078519    9.79167854416565   13.97059084013422
C         6.19259108979635   11.05376049130606   13.35698096352348
C         6.94814746085788   12.09260646679969   13.92192985191210
H         6.92827909506210   13.05965227715115   13.44486628720207
C         7.72079398696132   11.89937817011341   15.04341701022630
H         8.30270150851706   12.71471558092994   15.44465808543458
C         7.74338152266133   10.65062390066703   15.65474152126732
H         8.34151510762927   10.48688706340927   16.53870927851044
C         7.00014247316887    9.62145840572191   15.12690155154031
H         7.00038364877005    8.64467092034586   15.58618468228065
O         1.07542106220148    7.96370996682142   10.03947968311667
C         2.41809044848521    7.89854725428237    9.92499376906890
N         3.08515603122024    8.42946097532207   10.90223163778888
C         2.11374819265539    8.67609615570317   11.99101036321231
C         0.78131409929689    8.69129278058784   11.21880834270180
H        -0.02901118760542    8.19179081415483   11.75050316844686
H         0.46083316881421    9.70354414147747   10.93935877044091
C         2.34516175606623    9.94760883435877   12.79531223158666
H         2.34208890719723   10.83283868554020   12.16395403727103
H         3.29393375774581    9.88760892836495   13.32542356868214
H         1.54841228991049   10.04927555080726   13.52947276602608
C         2.13805652107647    7.44888374727958   12.91473877975425
H         3.12637278967042    7.31340592705031   13.34668189976592
H         1.88416692439115    6.55181971531170   12.35194954302569
H         1.41916139123987    7.57988307627256   13.72007642927532
S         5.18209218092907    8.61669380756929    8.44089136256435
C         4.08409745864317    7.32876734110031    8.08007566220240
C         2.86909872336624    7.14503390579944    8.76671923495395
C         1.99537644408586    6.14128686000786    8.31885432098996
H         1.06415251718272    5.99772306243192    8.84444657002621
C         2.31533836915875    5.32963659085987    7.25589107767547
H         1.63462371076844    4.55073453894520    6.94881348711467
C         3.51747500901020    5.51838510328123    6.58168216863344
H         3.77627322161889    4.88594087605416    5.74579864621056
C         4.37527264138054    6.51566869876341    6.98137165068866
H         5.30705779212759    6.68705836145977    6.46461891561991
C         7.37720321261270    8.94637033331197   10.85738317481206
C         7.25706777903722    7.64604201115034   10.85443525819037
C         8.40576898549104    9.95093567170198   10.81532557364355
C         9.05660245273878   10.36415505101525   11.97940165197032
H         8.80871815551813    9.89561887163273   12.92084640873904
C        10.01612258527837   11.35608508440530   11.92627408940335
H        10.50657840348279   11.66998773562439   12.83654049912146
C        10.35128483112779   11.94436008384384   10.71750896770586
H        11.09903353405198   12.72284083906225   10.68105793625666
C         9.73050427392815   11.51962067524145    9.55353551585030
H         9.99984352678893   11.96179685826395    8.60488991274354
C         8.76549044162294   10.53253790169672    9.59689777518293
H         8.28266943625819   10.19487968132609    8.69072160678672
C         8.02173212644125    6.42845592966597   10.79021791942973
C         7.97598193246906    5.50514076970196   11.83682618892325
H         7.35930293347665    5.71971678927115   12.69921626897391
C         8.71618249668205    4.34133945323022   11.76746452861677
H         8.67881887214634    3.63266345748709   12.58205430136670
C         9.49774662184944    4.07608904428070   10.65420325792277
H        10.06848520275937    3.16068009498157   10.59944907033388
C         9.54367943207216    4.98557872406502    9.60964636965481
H        10.15140227973584    4.77903754292413    8.74039117874723
C         8.81511197098535    6.15726643449445    9.67323367350211
H         8.84128858889865    6.87031667168065    8.86162658074429

