45
CSD_code = QODVIP | q = 0 | S = 0 | Stoichiometry = C14H19AgBrClO7S2 | MND = 6
Ag       -1.75229181815374    1.70230492300384    8.54000138807346
Br       -0.55020421592668    1.68662868510662   15.47693494468874
Cl        0.46424985097221    0.66585013518074    9.58756614403526
O        -0.66939761613656    0.29209085624792   10.38323167617325
O         0.54345762781826    2.09862514952687    9.58977828203480
O         1.63813127245067    0.10686303615902   10.10749292043328
O         0.22714900067141    0.23684576278677    8.24825036492657
S        -0.94393862405444    3.76626120674702    6.89699529539834
S        -3.62756465382770   -0.31582660556929    8.59866545296511
O        -3.04852265168792    1.85521640920051   10.85430651419198
O        -1.66579220642321    3.91707463280253    9.99489942809688
O        -3.66724734943595    2.20909988019281    6.72719240083709
C        -3.63048661087807    0.61232775762727   11.21237901977369
C        -2.09984291645905    2.35094215434143   11.70613016577567
C        -1.84887172817813    1.83672982066799   12.96630407331075
C        -0.86357977151806    2.40919116146953   13.75534806884283
C        -0.12209706763649    3.48317379464542   13.31954342885198
C        -0.37397543720216    4.00161328307555   12.05863686336887
C        -1.35355197385032    3.45527592422400   11.24613434415575
C        -0.78319404780984    4.87473381348670    9.43503941222775
C        -1.23335208561696    5.18973886437618    8.02037094120304
C        -2.36979061220043    3.96455839182662    5.76975739181016
C        -3.70249838341656    3.57359946777989    6.38240206248339
C        -4.91920480957856    1.70665063362581    7.12970156335013
C        -4.81666043550583    0.20294080642936    7.31013343710093
C        -4.56451136169201    0.16622893412504   10.10279643494037
H        -4.21716793605762    0.73327168987121   12.13477540549502
H        -2.83766258854710   -0.12969942599686   11.36042188542574
H        -2.38086818469368    0.97891348237627   13.34049141116806
H         0.65065663898707    3.90965296394563   13.93896462693829
H         0.23258675623915    4.82254261080343   11.71771845414210
H         0.23493891485947    4.46935757586591    9.42723800058854
H        -0.82073341184899    5.80018581531502   10.02828099769475
H        -0.66138254843630    6.03264908414458    7.63298709847500
H        -2.29567083035366    5.42539866678308    8.00899098421030
H        -2.39321357412321    4.99675023577665    5.42383511964644
H        -2.14534331098466    3.30276069477849    4.93499849125786
H        -3.92848658887559    4.18151414286528    7.27189365340244
H        -4.49935727468617    3.74801394226022    5.64134533622253
H        -5.67132370856771    1.92132622109368    6.35317011520486
H        -5.24240509762897    2.20055389206079    8.05885959375411
H        -4.43341838468321   -0.24788876902778    6.39631338441845
H        -5.78994215015477   -0.22262545515922    7.54949002976880
H        -5.24625968284812    0.97254941739131    9.83985395714113
H        -5.12955841230796   -0.70656566426895   10.42937943598319

