64
CSD_code = QODWAK | q = 0 | S = 0 | Stoichiometry = C26H30N2O3S2W | MND = 7
W        12.44900535589642    5.33317930023624    8.32935816274507
C        11.30998615483287    2.21022840592529    7.42901824163415
H        10.30469349028220    1.85029586465282    7.19900600263084
H        11.66191908628982    1.74089822046790    8.34811888513417
H        11.97825504289492    1.90813264725735    6.62116398822912
C        11.33219079303887    3.69849113895784    7.52474979282239
C        10.83666511428939    4.77203465499251    7.02199291233501
C         9.85928718670526    5.25542591519881    6.00533125150837
H         9.00234713256846    4.58112534196476    5.94118730779183
H        10.35335889669347    5.28048547256787    5.03309569497650
H         9.51166659935962    6.26447745709998    6.22773597112533
O        13.63606766959491    5.19656059771456    7.14392714960997
O        14.99080509912511    7.32446216033510   11.30644033570522
C        14.03696461867920    6.48741965138969   10.85902858661935
N        13.90831072221909    6.39673256382728    9.57859056507450
C        15.10443728815263    7.03506205476033    8.98853598968586
C        15.59849982078953    7.90719820587835   10.16065416064115
H        16.68081913172282    7.87998958700781   10.28950869411470
H        15.26129714397757    8.94774332830420   10.07676964758249
C        14.84291700669393    7.83119639996437    7.71957533933655
H        14.24075693815994    8.71321088658148    7.91819357569856
H        14.32592820784944    7.19202441443704    6.99801586412812
H        15.79317267193353    8.14677332838872    7.29505569860792
C        16.08588062061355    5.89156670132442    8.69831278430883
H        15.60175852346989    5.18906061951090    8.01551600293935
H        16.34554134990942    5.36644148880007    9.61720925845185
H        16.99124697885987    6.27572691719503    8.23563505296668
S        13.15800518568304    3.56517839966216   10.06195525770638
C        13.02538366026991    4.34871001623216   11.61078067797206
C        13.37262391264689    5.69158548427302   11.87156469243184
C        13.26206428560392    6.20334454324565   13.16747199215447
H        13.57134067600201    7.22260310468962   13.34110520475469
C        12.77744230123598    5.42941713455825   14.19816822853286
H        12.67273042424861    5.84493599456015   15.18830219016067
C        12.45558599202544    4.09748524661313   13.95538219736317
H        12.10011530542115    3.47238360455928   14.76145746301406
C        12.59797016183306    3.56659460081436   12.69322640794677
H        12.38250068786220    2.52497367649512   12.50796044431072
O        10.23120078993581    6.87253852012853   11.86842695922826
C        10.97955235125193    6.88423831856625   10.75105808563020
N        10.87176247169647    5.84920932633168    9.97738421892947
C         9.68814889067057    5.09813515567023   10.45318009289448
C         9.52539641040374    5.64222988706230   11.88716028239268
H         8.48757487556446    5.84084897969344   12.15660259395249
H         9.98388907253150    4.98379467544771   12.63507988520565
C         9.81415376057514    3.58338825665138   10.42627955409769
H        10.67333910498083    3.24281459946449   10.99580660269440
H         9.90968095858144    3.23764690975653    9.40107366020090
H         8.91488471628120    3.15194132915246   10.86193746717832
C         8.51137717871713    5.53600627443769    9.57044715480371
H         8.72000163128003    5.27809429269778    8.53506668653404
H         8.36687721382459    6.61363835872637    9.63539667132613
H         7.60010681000431    5.03394135557835    9.88682971578537
S        11.55434792669558    7.66824980492869    7.75334279669422
C        11.89424127636538    8.59221733086364    9.17766789374543
C        11.67566563415827    8.12639675685563   10.49466950795548
C        11.96267099273563    8.96142391383578   11.58201295453404
H        11.77144409696937    8.58693845459879   12.57586434775313
C        12.47335108085857   10.22443818666062   11.39561168222698
H        12.71522750009194   10.84469017719129   12.24470245312439
C        12.64437000183359   10.70713521279128   10.09941922324034
H        13.01514715663558   11.70949401930464    9.94234117605714
C        12.33824844897651    9.91426374841125    9.01892791583187
H        12.44359841093127   10.28863102474064    8.01170874521776

