85
CSD_code = QODZOY | q = 0 | S = 0 | Stoichiometry = C42H36O2P2PtS2 | MND = 4
Pt        7.60699118024745    5.30172486478632   11.11955093080969
S         6.34157416689955    7.25809124296928   10.79568520120000
S         7.24608040534933    5.48977277781117    8.82667928311634
P         8.77214886121352    3.25160911457782   10.96733921875502
P         7.62796296981791    5.61733516777507   13.41562619911306
O         5.14115139780280    9.10749374636968   10.03025595653108
O         5.08363845872514    8.27565619294423    5.99400804111514
C         6.40436945048183    6.97276299271960    9.10180332506225
C         5.81419958715485    7.83671938740487    8.19133239724480
C         5.14320128944879    8.97132466311256    8.80591291581951
C         4.46326737821017   10.00495352740584    7.95573103159101
H         4.11978288776980   10.81504794221474    8.59609465362743
H         3.61912533269941    9.55558255540920    7.43799771598297
H         5.14256663175695   10.38363477562478    7.19622700330453
C         5.82269243451996    7.65503860781209    6.73982555169088
C         6.80081362423244    6.66341962578083    6.15056482942190
H         6.82048793990038    6.80186909689877    5.07162372473895
H         6.47782042523485    5.64643996992587    6.36780041532365
H         7.79884288842439    6.79914466892008    6.55998769167202
C        10.52641220477267    3.11113422398571   11.42005756566990
C        11.12124562408407    4.20241602943827   12.04062078202047
H        10.52766183183055    5.09477110608494   12.20445951633513
C        12.44742441153711    4.14681061059691   12.42692151888373
H        12.90624375011141    4.99575389367309   12.91133459806671
C        13.18632981699702    3.00085243854726   12.18409859961609
H        14.22211483403894    2.95215200991992   12.48584044453823
C        12.60527233377934    1.92044135503303   11.53772154916844
H        13.19103557927302    1.03617556911979   11.33268043952642
C        11.27936513202714    1.97268737521759   11.14911859596574
H        10.82826179900049    1.14158447007070   10.62393945091676
C         7.89826116906291    2.05536188015600   12.01910807685492
C         6.52260553891737    2.26448005439352   12.10666100735034
H         6.08254968624458    3.07652536718418   11.53154838626169
C         5.74133260998703    1.45815260950897   12.91066463664945
H         4.67779145035261    1.63061864977360   12.98307038638024
C         6.33320287319321    0.43289253270984   13.63347943403571
H         5.72874398500743   -0.19764644607116   14.26849986969775
C         7.69948864349845    0.21964829018954   13.54699133502658
H         8.15606092430783   -0.57948007006958   14.11282623458162
C         8.48717283893400    1.02901868703768   12.74537792565222
H         9.55506574134353    0.87378683840420   12.70033603074426
C         8.74691834455915    2.46725200722115    9.32957612543567
C         7.96520018988721    1.36112819285599    9.01965576127275
H         7.37049701242067    0.88528164139097    9.78695466798521
C         7.95018583395059    0.87317218697286    7.72463666802907
H         7.34347474971792    0.01206714773494    7.48469953606808
C         8.70170438465410    1.48771140064776    6.73719897031030
H         8.67956101606851    1.10652068051362    5.72707874622137
C         9.47505958088004    2.59738181129450    7.04183279405842
H        10.05295935507253    3.08292347686966    6.26956442518223
C         9.49569230199411    3.08854135861999    8.33184781385135
H        10.08381590218117    3.96231893634745    8.58115535410088
C         6.04890854837232    5.18852595163406   14.20217505445328
C         4.92882328941418    5.11596502349354   13.38043930769806
H         5.04100755162179    5.31605934020041   12.32021273726149
C         3.69199654223718    4.80560468332285   13.91384833286566
H         2.82476808595799    4.75266818744241   13.27256600381340
C         3.56771724727517    4.56404538259856   15.27244460675082
H         2.60329612350341    4.31902466217887   15.69239665550673
C         4.68017394996294    4.63795236169229   16.09569087496894
H         4.58082101115366    4.45313485721495   17.15553329356008
C         5.91976789695139    4.94961052423686   15.56703709523240
H         6.78745192276906    5.00084657497804   16.21054985142581
C         8.86152197754743    4.83636822700793   14.50550489751817
C        10.02505641698280    5.50389226999305   14.87513235855336
H        10.16338327162533    6.53789715712335   14.59075602931724
C        10.99797044842133    4.84948411486780   15.60853016219085
H        11.89595046704885    5.37506093162689   15.89856717586363
C        10.82421154871182    3.52416823986493   15.97057895005037
H        11.58869110246927    3.01375590660997   16.53710278822367
C         9.66439629400053    2.85676303719434   15.61106613306049
H         9.51962402149777    1.82595987002321   15.89920640921372
C         8.68730401023839    3.50748868640138   14.88258490597122
H         7.77573133277730    2.99427030809737   14.61228726033760
C         7.85506065373954    7.38661930634252   13.76104418345329
C         7.26407357476290    8.04476898117869   14.83104395642243
H         6.62288731839571    7.50467850722970   15.51295281481937
C         7.48562233965618    9.39955782068186   15.00686845981586
H         7.01855916113741    9.91555483134060   15.83292541870464
C         8.29297520581864   10.09672062862726   14.12337786075141
H         8.45328254644913   11.15562808022846   14.26177872882779
C         8.88352222159957    9.44226815300653   13.05381390842072
H         9.50237085270938    9.98931401293268   12.35817962939075
C         8.66160083133442    8.09145725028761   12.87110337478828
H         9.09274347421787    7.56612889446163   12.02229744821036

