69
CSD_code = QOFCOE | q = 1 | S = 0 | Stoichiometry = C20H30CoN8O8S2(1+) | MND = 6
Co        4.15852260503634    8.23335520160291    0.79853093701255
S         4.55619313184255   14.56810147034354    2.70817422223529
S         4.18065889084106    1.87300465798920   -1.04233737598328
N         5.34609774958244    9.02635933089631    2.07598875912293
N         2.90264306568996    9.32915889382784    1.73259217605455
N         5.41884834071596    7.15195729730456   -0.14635145341214
N         2.96831841041557    7.41960228666204   -0.46315962869634
N         4.51352460629159    9.71355573552251   -0.59257412422796
H         3.75795677572981    9.66793725239741   -1.28027762048671
H         5.39305614481783    9.48425736280093   -1.06110543209374
N         3.78947488055972    6.75476783022835    2.19050312868892
H         4.49162804802314    6.85203915961524    2.92741985014344
H         2.86801652626601    6.94225852419423    2.59226472401255
N         5.99980709197883   15.38928673072764    2.60376399355153
H         5.88303594391808   16.31526148743508    2.22432664091903
H         6.49729837487000   15.41085103933016    3.47975315526212
N         2.85848537012196    0.87666325804364   -0.87963434863832
H         3.10348126207905   -0.01867458525742   -0.48816831170461
H         2.34163180422724    0.77346210457754   -1.73847359723613
O         6.58468383809619    8.70136767014963    2.10102392104727
O         1.58026674764657    9.40228797058858    1.43607414110731
H         1.43969669775790    8.75008941733558    0.65161369886558
O         6.75124188624916    7.13067936071478    0.10948625225973
H         6.87966660242813    7.73283306840302    0.93568840991958
O         1.72057019142719    7.70793176769287   -0.45735831668305
O         3.44462663817234   15.43911700830549    2.50118270139991
O         4.59443185411566   13.74508909695192    3.88934514757065
O         5.39996736449337    1.15498145434836   -0.85574975923279
O         4.00414816046481    2.66084436642755   -2.23498507247834
C         4.79815446383480    9.85601578334114    2.91554508506089
C         3.38172595977863   10.04229029443841    2.70111214026718
C         4.94133471967717    6.43637206793333   -1.11375233070228
C         3.51581454019171    6.58362005324909   -1.29667942651681
C         5.75930627952863    5.55300368807076   -1.97888206317599
H         6.76282535156572    5.45646852307354   -1.57389126240253
H         5.82201813465079    5.97355618983401   -2.98219020920657
H         5.29687905240171    4.57074714519133   -2.07188102731636
C         2.75758105420825    5.84418720051723   -2.34319335636275
H         3.01076085435546    4.78505208033533   -2.32918202381195
H         1.69190318063400    5.97595588774755   -2.17080641545425
H         3.00104055337171    6.22908717769565   -3.33290640005051
C         5.54802563525950   10.55031443870605    3.99788879888558
H         5.23459102832546   10.18178013879327    4.97400848759989
H         6.61116648372187   10.35763068082666    3.87448654769868
H         5.35942518320304   11.62309029513544    3.97555104056510
C         2.57393571718912   10.96113951177380    3.53895649661895
H         2.44412924926237   10.53541754993124    4.53376093241480
H         1.59469836411935   11.11177591223448    3.09288947778266
H         3.08381819253505   11.91590689504575    3.66144645793464
C         4.58702952598366   11.03251420974267   -0.04460895077526
C         5.79739200376719   11.49862656186198    0.46207532085122
H         6.69957946257143   10.91952844085522    0.33318837517139
C         5.82108417106475   12.66876224652269    1.19815404026660
H         6.73193755674323   13.02713378373876    1.64766119249466
C         4.64642500925756   13.37035848950697    1.38910753908971
C         3.46070372839780   12.96725223194733    0.80571252198191
H         2.57488190257341   13.56112921373468    0.96178719193843
C         3.42898038615221   11.79488608340858    0.07234309042833
H         2.50123490056675   11.44637199464253   -0.35624798126445
C         3.82581178031939    5.42685950209574    1.66195102124588
C         2.66872119018081    4.87088491950590    1.12278291196785
H         1.72445754728003    5.38668975978648    1.21382777461179
C         2.75181242588804    3.69179065910242    0.40589665421031
H         1.88410215760259    3.26297340905782   -0.06666132916217
C         3.97915304488850    3.07425087624698    0.26100630233182
C         5.03777048524298    4.74628638678162    1.59496344153537
H         5.92347964174474    5.16561337054935    2.04831866692001
C         5.11390484204526    3.56721418461672    0.87569599053079
H         6.04512523605732    3.03873594347821    0.75210845738099

