69
CSD_code = QOFCUK | q = 1 | S = 0 | Stoichiometry = C20H30CoN8O8S2(1+) | MND = 6
Co        9.91594518668758   -0.00475096972229    7.71793020746669
S         9.37812413464337   -6.34924880085966    9.57867195433079
S        10.05347701142984    6.35450114708686    5.87132206492012
N        11.08064596995908   -1.09575622836881    8.76908224959159
N         8.61447679634269   -0.80091362374556    8.87729118667687
N        11.21749770469029    0.81011427818440    6.57307701338050
N         8.74737388460004    1.07011680207224    6.65554797956020
N         9.69931133924532   -1.48830736979132    6.30153319192819
H         8.86557697134459   -1.26421388427189    5.75357509985277
H        10.51494260748797   -1.43807677300291    5.68669639434292
N        10.14815886142140    1.47731477106381    9.13456490335057
H         9.38023364931109    1.37959471469239    9.80258138036733
H        11.02834912154625    1.29351204914882    9.62155423849797
N         7.95510275475570   -7.17731526041185    9.33799923755446
H         8.11127132639349   -8.10228307815137    8.97063190305696
H         7.37689488640171   -7.20154560224169   10.16280861517838
N        11.35915769065327    7.34555144531257    6.15548930107815
H        11.08223537541708    8.23960803536818    6.52821816852300
H        11.95035398293441    7.45137773855457    5.34650458320200
O        12.42602222885417   -1.16277034851719    8.60216319997289
H        12.63804699229179   -0.51510875227699    7.83059985822595
O         7.37804809229014   -0.47961045372110    8.78472607093434
O        12.45993216273042    0.52676236698484    6.69874784709226
O         7.39701718792756    1.08831482840964    6.78503303062584
H         7.19289789536131    0.48731283254633    7.59728295931104
O         9.22515777930319   -5.52936895836143   10.75269695350507
O        10.50853878950167   -7.21414925740971    9.47504209608334
O         8.82508767249511    7.07751661631597    5.94580967776229
O        10.33633502752563    5.56635000715898    4.69987730100410
C        10.51328013762756   -1.81171643743089    9.68649351472238
C         9.08207755948312   -1.63087857464463    9.76379991534755
C        10.74863010637320    1.64089157974390    5.68794279591482
C         9.31178806856148    1.78381727906178    5.73463563769420
C        11.24049271910491   -2.72836633580012   10.59734388491272
H        11.27565902551043   -2.30161595755436   11.59953353679636
H        12.25759805479313   -2.87708478686933   10.24530294409633
H        10.72368717584884   -3.68432582752154   10.67234147825521
C         8.23356935930516   -2.32985827256782   10.76752670871072
H         8.43188330904559   -3.40104242318383   10.76627821142803
H         7.18667825244276   -2.14552904736630   10.53815582725381
H         8.44465734017289   -1.95720197930239   11.76916595329823
C        11.60021508201902    2.37880364612323    4.71461564385432
H        12.64510096764160    2.25233866795977    4.98839796112413
H        11.34291203044907    3.43690039409960    4.69912994653392
H        11.45374330444462    1.98793582349700    3.70826380800698
C         8.57606922147353    2.66095204603263    4.79268715362816
H         8.60634026695968    2.23418414189730    3.79045631115227
H         9.04359656418316    3.64365566513373    4.73691636139979
H         7.53934004341905    2.75774346618557    5.10289672935351
C         9.58352602098537   -2.80779315529322    6.84063681194774
C        10.73049840406123   -3.56268828391606    7.06536126980679
H        11.69201329270753   -3.20754096406825    6.72595581478866
C        10.63774868189003   -4.73668456289386    7.79087241355851
H        11.50893991199928   -5.32507056298270    8.02865079881067
C         9.40513307196502   -5.14859592613785    8.25953043763837
C         8.24912186148971   -4.45400547237350    7.96036350780971
H         7.30253881171899   -4.81904077295063    8.32206749699804
C         8.33411971206371   -3.28228908774194    7.23144313899594
H         7.44430715992936   -2.70864904409476    7.01920792880543
C        10.15825483599864    2.80394526080992    8.60160192990745
C        11.35959962697088    3.36165347545874    8.17216306389736
H        12.29219312307976    2.84778388336702    8.35146781758118
C        11.34145168616812    4.53921715650925    7.44837165405313
H        12.24836100891179    4.96907200581529    7.05745492666304
C        10.13176178639926    5.15355159202686    7.18788363267465
C         8.94544889613285    4.65902367394768    7.69420000570206
H         8.02883222809501    5.18553862861009    7.48380625739483
C         8.95641558851200    3.48129790413211    8.41961260814363
H         8.03320261717760    3.06124291187812    8.78980549395189

