110
CSD_code = QOFHEA | q = 0 | S = 0 | Stoichiometry = C42H63NPSi2Y | MND = 8
C         5.29914294116732    4.80568517863292   -0.35106386502741
H         5.84367286036037    5.72401466889974   -0.11814905764225
H         5.05348725514880    4.82142931642149   -1.41528084760712
C         4.01853190180106    4.73643307711544    0.47841745114954
H         3.39372579709204    5.61041642764474    0.26074492557356
C         3.25190034728123    3.46163483914767    0.12981636067195
H         2.98506006719579    3.46707242892271   -0.92935442294657
H         2.32604963833394    3.41399200436779    0.70786951263550
C         4.12497021582800    2.24666512798453    0.44110295187282
H         3.57763821464976    1.32932519580682    0.19624923197401
C         5.40834986202109    2.31157042392562   -0.38418025568082
H         6.02937568560666    1.43798712284397   -0.17330150414098
H         5.16719853409755    2.30258012656820   -1.44954123381125
C         6.16768523219295    3.58963862456131   -0.03301971709105
H         7.09349844251357    3.63810605174867   -0.61787842187279
C         4.37164046232444    4.73703029361141    1.96599438976181
H         3.45789111545566    4.72443957693768    2.56329774758097
H         4.92267170349545    5.64834468497482    2.21280913236146
C         4.47316241045450    2.24211246465861    1.92758965651291
H         5.09826338050325    1.37326175972284    2.17115335053410
H         3.56000121310500    2.17039898338837    2.52322456247524
C         6.51436492482628    3.58950913025732    1.45501081714044
H         7.15149346308220    2.72823605210530    1.69197469665504
H         7.06117242492332    4.50215684007392    1.70768679078063
C         5.23564775501662    3.52035971358661    2.30526601249692
C         3.80029976942456    5.00482679630419    5.41544533029618
C         3.66379736634073    5.98621032582448    6.39233728243309
H         4.54237573346230    6.51091674118762    6.74135526603931
C         2.41895357770083    6.26518531229210    6.92377649060003
H         2.31432041884280    7.03030760192228    7.67929943752586
C         1.30683762057815    5.55479259378109    6.49793741137115
H         0.33509041001367    5.77292139558657    6.91597192348825
C         1.44442863394575    4.55210020015649    5.55303776795966
H         0.58249990830684    3.98091788637747    5.23977622001530
C         2.69018456077461    4.27399362556818    5.01802163749629
H         2.81253991826707    3.47432909141223    4.30090821453266
C         6.25466203729358    6.14197922408940    4.31319086266315
C         7.58719481354499    6.04725961592521    3.92249416303096
H         8.07796606566476    5.08134923793296    3.96060765802967
C         8.26853029842129    7.16329487997723    3.47437796657634
H         9.30420273025879    7.08189181582705    3.17749179145834
C         7.61782606890678    8.38460904114933    3.40012599978419
H         8.14585785460613    9.25843181330672    3.04831681274514
C         6.28553554873198    8.48040783238136    3.76652224342214
H         5.77292601503473    9.42877162924972    3.69519360125367
C         5.60256467227514    7.36519191588549    4.21981284672993
H         4.55862712830398    7.44400519569059    4.48822851196793
C         6.24986306955990    3.97362651806625    6.30662798156373
C         7.66171987956463    3.73652390681204    6.51518463823328
H         8.46992619878622    4.30341090726873    6.06632774958110
C         7.74856146861869    2.94794922055815    7.66375005563410
C         6.45627286209756    2.67315706277216    8.13980338441287
C         5.52705765296763    3.28525331258303    7.32010847255933
H         4.45498645391655    3.28824126103376    7.42864721019775
C         8.81579601296129    2.36997133513962    8.54816652509110
C         7.98011100388911    1.48272344979858    9.51448397160535
H         8.07566475093871    0.43985295623548    9.20774190710238
H         8.34809445432554    1.56217196610450   10.53726229542064
C         6.48433586581036    1.89719906595082    9.42457825028126
C         9.82107031383885    1.53312075012865    7.74890225000543
H         9.30075249127757    0.80201518395162    7.12265080082288
H        10.49656988799951    1.00352155250013    8.41901780706300
H        10.41694300856776    2.17693288367240    7.10305138027693
C         9.56520096112664    3.47331626770412    9.30341818941769
H        10.08273266621880    4.12464106046113    8.60190942835076
H        10.29932192601048    3.04285013672822    9.98223734846307
H         8.87088271338820    4.07958403206280    9.87904906672543
C         5.56206234617357    0.67718285223788    9.39891857108941
H         4.52333646414105    0.99514994870501    9.33478782024016
H         5.68501971775627    0.08536202109458   10.30481144781368
H         5.77825513188571    0.04939333600325    8.53707177480536
C         6.08564837803684    2.80031571235828   10.59782070921617
H         6.72852283478347    3.67562669730414   10.64155405383843
H         6.16215257210984    2.26156712427086   11.54095073939354
H         5.05942094810043    3.14040721332465   10.47482606003246
C         6.61447451973441   -0.40944450005944    5.55618059005982
H         7.24449721304388   -1.17818008777576    5.09272439713631
H         6.85275648920178   -0.43955342031380    6.62659284502247
C         3.69150234632317    0.63073212525497    5.63345409574841
H         3.65074097546499    0.86450308488153    6.69275718958696
H         2.67168266154952    0.46288919108592    5.29896424969599
H         4.07262659301056    1.51386052558325    5.11829235355454
C         4.55123120840219   -1.48952396023635    3.51324295193697
H         5.03203234445179   -0.82830446031577    2.79693891971701
H         3.49798793225190   -1.54074146322909    3.25653176419561
H         4.96954880757036   -2.48073762288014    3.37178335485766
C         4.17463528220793   -2.29952030813976    6.45965183214537
H         4.76803066421582   -3.20031519912939    6.33824199063593
H         3.14153041498398   -2.55629237867974    6.24576200139105
H         4.22986208749406   -2.01010080743810    7.50451278780277
C         9.28543972536593    2.00819387645517    3.71572151199628
H         9.24901015101531    2.87812099588972    3.04728268786790
H        10.03104640963588    2.24907256895778    4.48442737963544
C         8.40527219200409   -0.16547368856847    1.70409317507546
H         7.51399569914260   -0.30681956205216    2.31874956837550
H         8.64557981042804   -1.12130056266341    1.24932578598356
H         8.15622274675036    0.51819301482064    0.89700193314556
C        11.32658091665966    0.79678166128024    1.53491724803017
H        11.07094388910992    1.54437331166631    0.79016498778004
H        11.59881526779227   -0.11167387970661    1.00661566416406
H        12.20973462044595    1.14759769210309    2.05948913729970
C        10.41421487908498   -0.85856203141482    3.98390062212206
H        11.34228169413627   -0.58878144282680    4.47721456940306
H        10.57402471680268   -1.80912703922365    3.48560649044629
H         9.66408878986980   -1.00938839835187    4.75560954539130
N         5.59826180813354    3.41711229338615    3.72041616870151
P         5.47428715560501    4.56334660310152    4.83312857921392
Si        4.80731895205485   -0.89551806490087    5.31874627318826
Si        9.87293967604246    0.50047124428650    2.75069082363463
Y         7.14990232588141    1.76544906883702    4.76893893209020

