67
CSD_code = QOFJEA | q = 0 | S = 0 | Stoichiometry = C24H32Cl2N6NiO2 | MND = 6
Ni        6.68941147713140    1.83035603720242   11.65725162327734
Cl        5.35052079896305    0.36157586873623   10.95122487189762
O         4.90731566514444    4.50052634022774    7.60818076575745
N         5.50778010677384    3.15258107905811   10.72639595337794
N         4.88590932629498    4.10328326966555    8.80809288007351
N         7.60523535472197    1.85507337400163    9.60383150028443
C         5.77376021700187    3.32255919931686    9.44289575005858
C         4.35701636425927    3.97948581876010   11.07781233847976
C         3.72991117514565    4.32082973243077    9.69402509932326
C         3.39133202868174    3.24980417231106   12.00908636727375
H         2.44424060985505    3.78157339883691   12.05131789913621
H         3.80965624686556    3.21448431963783   13.01009090423951
H         3.22415108362026    2.23149387852953   11.67281977300299
C         4.88559712926199    5.22727870957993   11.80268010628613
H         5.46395301195707    4.90801381383897   12.66672524088930
H         4.06175781530437    5.84745428738092   12.14438348850660
H         5.53215548614698    5.81108741423977   11.15197290932117
C         2.68549027148914    3.29165077702773    9.23873576637191
H         1.75646979962588    3.41044828018212    9.78746136548321
H         3.05838167102351    2.27892347530404    9.37652373688210
H         2.48714237545784    3.44540673059950    8.17937014335907
C         3.17742871120758    5.72621171812688    9.51288076987744
H         3.92962256607469    6.48488636092731    9.70722814077485
H         2.32966695939446    5.88381499265516   10.17376528216006
H         2.84797500950703    5.83976370910003    8.48238645677162
C         6.84641527813719    2.59533813308851    8.78385170988988
C         7.02090726609038    2.57154975910517    7.40083900262148
H         6.38839493183239    3.18277186374506    6.77593057986426
C         7.99333439281617    1.74284492080390    6.87185801030896
H         8.14784256219192    1.70100338231915    5.80402121425166
C         8.75212853429081    0.95865718152072    7.72802755120370
H         9.51121984891068    0.29164045970647    7.35207479638100
C         8.51911744169358    1.04832419166144    9.09159376889153
H         9.08085501467244    0.45702802225827    9.80264077604280
Cl        8.02830794344375    0.36155302490817   12.36322566200967
N         7.87100897887999    3.15261564537436   12.58808072982425
C         7.60503672541873    3.32258211333249   13.87158687621231
N         8.49289800730407    4.10328775718366   14.50639085507476
O         8.47151325906316    4.50051308265910   15.70631050918253
C         9.64889146073611    4.32082824737492   13.62045272932816
C         9.02177143383232    3.97952492210041   12.23666337437802
C         9.98744013620218    3.24986743264411   11.30535445008890
H        10.93452724115763    3.78164376412674   11.26312699803781
H         9.56910750535288    3.21456983009531   10.30435243659876
H        10.15463363291287    2.23155066591843   11.64159413419525
C         8.49316340384336    5.22733296846126   11.51184071040731
H         7.91479042285770    4.90809106095019   10.64779774552003
H         9.31699547222133    5.84751725047700   11.17013792299109
H         7.84661897505799    5.81112355643697   12.16257993719866
C        10.69330147944229    3.29162266587338   14.07570469351914
H        11.62231640989143    3.41041668502356   13.52696851902252
H        10.32039301129337    2.27890428004766   13.93790254649381
H        10.89166550918359    3.44535571375804   15.13506976174427
C        10.20140188380657    5.72619665969387   13.80161588131544
H         9.44922394002613    6.48489312508329   13.60729024561375
H        11.04916470085082    5.88379358748498   13.14073089916567
H        10.53086318801204    5.83971495675834   14.83211068552761
C         6.53238111903991    2.59536162816524   14.53063267306134
N         5.77355536206218    1.85509921030067   13.71065704739343
C         4.85966509811911    1.04836206783091   14.22289977292679
C         4.62666073980440    0.95869574791094   15.58646715298457
C         5.38546041853029    1.74288226581892   16.44263275735198
C         6.35788716807826    2.57158328723115   15.91364599133945
H         6.99039607386851    3.18281753479943   16.53854533688619
H         5.23094568303353    1.70105716790084   17.51046871624300
H         3.86757023573301    0.29168028861618   15.96242407173339
H         4.29794684939473    0.45703713377608   13.51186163430887

