44
CSD_code = QOFPIK | q = 1 | S = 0 | Stoichiometry = C12H20N9O2Pt(1+) | MND = 4
Pt       20.38954461070272   13.60050548745836    5.24197735347005
N        20.24901152227233   13.59599205930538    3.14624502311503
H        19.67954120648725   12.85508951791769    2.73885509238554
H        21.17276431844772   13.57371242799292    2.71139453310592
H        19.81157128579389   14.50429598684958    2.93944829745007
N        20.67073229803736   13.58375886183123    7.28982941953307
H        21.67981437761213   13.85205603394537    7.29901199787189
H        20.55863554333055   12.68565170910659    7.75782871825461
H        20.14229321250932   14.29084183311989    7.80216200780911
N        15.74419452220920   12.43585466574057    5.22301594487935
C        15.46019401679748   11.14998727953130    5.32955328852853
H        14.41000225100316   10.89732437728434    5.34071862641557
N        16.30407381226087   10.13803957699650    5.42178813319083
C        17.57488098023965   10.52278957281091    5.40146306316881
C        18.01542028983705   11.85098393040021    5.28977541639923
C        17.01260244055486   12.84806377099731    5.19905134191318
N        17.26052493990264   14.15879473433091    5.11849385272693
H        16.46864905853127   14.77250769001112    5.02398709559919
H        18.19399574130284   14.53496307995877    4.97630430934213
N        19.39144251893223   11.85102687183354    5.31719401974597
C        19.75348534208372   10.58925310024978    5.43888655885479
H        20.77259857580995   10.25381008455276    5.49170870542871
N        18.70110073882763    9.75116490099503    5.49805778782185
C        18.71871901803158    8.30866101044602    5.57502014894449
H        19.60205551179853    8.00128711030082    6.13894154328044
H        17.81675817157348    8.00703295066907    6.11109578859502
C        18.72427340355438    7.68823790542962    4.18230150634741
H        18.72004850199516    6.60622869973178    4.26820625413870
H        19.60954262704035    7.98840545851577    3.62593500973690
H        17.83770839706005    7.99377042266511    3.63276593651997
N        21.14534032966214   17.62738795282566    4.42422230778141
C        20.41176867813297   18.67424756702407    3.74514025366985
H        19.45655312219820   18.26207462801918    3.42541342293986
H        20.96719931407067   19.02263369563888    2.87426242028412
H        20.23787705041445   19.51163482748082    4.42069418459496
C        20.59735595243003   16.37132202881822    4.52485691305366
O        19.49821162208280   16.09647461569045    4.02367114057310
N        21.28731218134433   15.41949447570394    5.18107178115675
C        22.49304739429212   15.62755612788013    5.79980250062167
O        22.98505472496226   14.71750343698757    6.46939200272203
C        23.06917014182500   16.93909070178971    5.62374064591322
H        24.03535712287778   17.13633269556208    6.05249310427585
C        22.37204326151516   17.87831932580256    4.95722760888913
H        22.74412986963325   18.88213680979844    4.81529493894996

