55
CSD_code = QOFQIN | q = 0 | S = 0 | Stoichiometry = C22H22MoN4O5S | MND = 8
C         1.54924064597415    4.98165646964170    5.97945024114616
H         1.32527250200443    5.61875850034938    6.84733752931778
H         0.74383798650117    5.04415923923316    5.24120753010688
C         1.77534349307804    3.55368643653697    6.41290867333053
C         2.64179277456784    3.34865636669425    7.48592661668613
H         2.70271505844245    2.34383628552717    7.89494765216262
H         2.78902240427034    4.12073482584605    8.23511155174632
C         0.78228189568750    2.51130810151229    5.98895892325782
H         1.14259601724372    1.51126694170567    6.23329370279540
H         0.57079580129854    2.54931007122279    4.92192166255586
H        -0.15584417558063    2.67382609299693    6.52642247641945
C         2.93140106179650    2.72360590791394    1.40989383529960
H         2.92354246400218    1.68668428655954    1.10455465203402
H         3.94363085811023    3.08008468710986    1.55093836710735
H         2.39470917819869    3.33641026440747    0.69915347403824
C         4.56212621472740    5.01300577468142    6.82063038857817
C         2.79387924443865    5.67657145786375    5.33365053726742
C         6.60207971586477    2.98932299314575    5.40554369028242
C         7.64306096392472    2.07608461144198    5.49320512498864
H         8.65888372024325    2.42254967705697    5.41761183766008
C         7.34396098479187    0.74039068559141    5.70521012657790
H         8.13004246493449    0.00753874358985    5.78834223872024
C         6.00614459310124    0.37425135770020    5.80118888692188
H         5.72193287359666   -0.65284035865887    5.96547830445357
C         5.03353803832150    1.34325128960023    5.68728285144707
H         3.98136590508571    1.09027991136737    5.74481737164854
C         6.23040051978395    4.95389417244791    4.09985804385709
C         7.00304247430440    5.68554846358849    3.20157421603165
H         8.06113169283755    5.79517849547354    3.38253543954061
C         6.39429021440047    6.26636835079300    2.10474053958740
H         6.96809760372076    6.84772507778492    1.40039951380605
C         5.02839568909240    6.07614158355499    1.94356351616460
H         4.49899686209896    6.51419494007924    1.11358007453138
C         4.33739460358739    5.32371744970324    2.87261823840513
H         3.27013456297676    5.17153927068712    2.77883436024187
C         7.73532455201305    5.07379647211881    6.01291703184963
N         8.61338227022725    4.37473598595077    6.71712942478653
C         9.42827546908642    5.02137175136869    7.53469699014227
H        10.11518678168958    4.39204985746510    8.08483598514963
C         9.42471984270543    6.39484256443719    7.68754110228834
H        10.10983864940066    6.87892184243810    8.36427605130829
C         8.49919425868842    7.12651910543798    6.95230937412195
H         8.44197379324474    8.19991076973005    7.05423961813759
N         5.30876625084525    2.64158671303423    5.49362116852536
N         4.91478212899688    4.75924902221404    3.93917967258770
C         7.63646505204432    6.46714217124774    6.10186551359306
H         6.88123138166996    6.99996538950531    5.54679833861264
N         6.84577151520520    4.36108988433139    5.20862731235753
O         3.05382523120906    2.40206178965095    3.99977220624672
O         0.96196498283510    1.85052881696259    2.89054193089969
O         1.62670422113690    4.17782952147561    3.21026281336311
O         5.02951945784384    5.68416232991802    7.63769602899805
O         2.86067404228404    6.80170574759260    4.95916479922218
S         2.04218220882630    2.80025392337666    2.99589849603522
Mo        3.72278100268387    3.91047791685064    5.49453395307069

