48
CSD_code = QOFRAG | q = 1 | S = 0 | Stoichiometry = C22H20MoN3O2(1+) | MND = 8
C         8.23295919984847    2.83514087689124    3.64569112991347
H         7.60515142760578    1.97696155542091    3.37359096087974
H         7.58402684930843    3.69448570209706    3.84371160530832
C         9.24779407132720    3.14413622910458    2.58590679814833
C         9.83453273898062    2.01857482155838    2.00497679418304
H        10.51130281267801    2.19776886726490    1.17297939595711
H         9.26995039904004    1.09740074339367    1.90450997463506
C         9.28304755931297    4.46999754912198    1.87706841513819
H         9.19482011394081    5.33308226642762    2.53245655609288
H         8.45031463107938    4.50704228437037    1.17058307908307
H        10.20551715603183    4.56405929645201    1.30360704366345
C        13.10850158822194    3.68784545384217    5.51781516938944
H        14.00291180844609    4.14057934546977    5.95370273042594
C         8.77655302286891    2.44440064002140    5.15231168046498
C        10.22026968863683    0.46794710828650    4.01750612524629
C        12.11009700042575    4.79016070678686    5.23955986169229
C        12.45356413425446    6.09386229270851    5.57726557444910
H        13.45717364072316    6.32034017841154    5.90124135962158
C        11.49890883084911    7.09273318983577    5.50732949623681
H        11.74544102601419    8.11432487309320    5.74688473850694
C        10.20718269030726    6.72033123795255    5.17106791779876
H         9.40045601710801    7.43488538531292    5.17212580884748
C         9.96212927414691    5.40466451535474    4.82850334583343
H         8.95174565282079    5.09884073627645    4.60968125078471
C        12.49539653430196    2.74231787569669    6.53017878562220
C        13.06657933310834    2.59569434706405    7.78811251220582
H        13.95239704790542    3.15313505541949    8.04978524878007
C        12.48331212358834    1.72964754037351    8.69672192004514
H        12.90495394071137    1.59929910519516    9.68067138942586
C        11.34747087039511    1.03660402571997    8.30452392888431
H        10.85577919855999    0.34870473175763    8.97230561288460
C        10.84590895031463    1.23787718514264    7.03249250715601
H         9.96512950034880    0.70713221538324    6.70197670791736
C        13.51040404554115    2.91270679941015    4.29258223224323
C        14.81700683127375    2.95945092686605    3.82287691644365
H        15.54660010388556    3.58306297241961    4.31512672859228
C        15.16566981199913    2.19749620926437    2.72172884824181
H        16.17099839129740    2.21563439773360    2.33285272245779
C        14.18781504859775    1.39437963733597    2.15066553028901
H        14.41051494431488    0.76001275490806    1.30846136952100
C        12.91462487083688    1.40519858667486    2.68431918561185
H        12.14771399448776    0.76203428847234    2.27717464936720
O         8.06654369805748    2.31157247022155    6.07877199579147
O         9.99521086676914   -0.64966318662073    3.95001934093146
Mo       10.51068401405439    2.36885088287895    4.21359807865201
N        10.89741912868827    4.45276341702281    4.79245435468503
N        11.40080567547642    2.07718056659159    6.15645358300698
N        12.56110974150850    2.16864133961509    3.72416903894034

