73
CSD_code = QOFSAH | q = 0 | S = 0 | Stoichiometry = C25H37MoO5P5 | MND = 6
Mo        5.46472438388766    3.18109787929890    4.46565555347201
P         4.46573393122961    5.27250276242126    3.59724714141116
P         2.74341943213405    7.86418412448646    3.82037322913375
P         3.36484193616420    8.81730503325048    1.06064234799724
P         4.05396156041165    6.14496938726700    1.64456748017281
P         5.48979608375444    6.90823003820085    4.51157088557095
H         4.56073153868868    6.87307201338637    5.57742886810125
O         8.15565247559371    3.93433383656857    3.11336298544695
O         6.35622611889857    4.85302020719913    6.92724442373623
O         6.94464404227573    0.73424670670740    5.63227771829670
O         2.95766165960131    2.23555638201302    6.03998778397021
O         4.70257688073686    1.52799718069844    1.94446318161994
C         2.88889334322396    6.13474708048471    3.08891679956616
C         2.22422055443622    8.77183717413746    2.31698531523800
C         4.72972734721602    7.90027930028903    1.98198157611290
C         4.58258904401452    8.21005605696969    3.50544095270393
C         7.14329944357246    3.69083156327812    3.57519267009737
C         6.00947623323182    4.24018402319709    6.03070595154060
C         6.38872775903192    1.62982585099604    5.19771629813983
C         3.84841005010993    2.60958444298580    5.43535612575811
C         4.95918549851522    2.14385672837589    2.86748710652658
C         1.64734220731647    5.24524927700044    3.04335891839015
C         0.62973966829597    5.82336088922933    2.06536636559684
H        -0.23515223581259    5.16855453596483    1.98195576691198
H         1.08392119918968    5.93105064797564    1.07982669428764
H         0.29457149352541    6.79389532764724    2.40922130232853
C         1.06650756840709    5.17524113346870    4.45521669756381
H         0.20315651744261    4.51466122134585    4.48620867856409
H         0.76099858411977    6.16707251616873    4.79127781906367
H         1.82061167991900    4.79731407100564    5.14826765023315
C         2.00091841098279    3.83749203696164    2.55704629932762
H         1.09107778105207    3.27879341515249    2.34646946721240
H         2.56489833507500    3.28659385836178    3.30907524925564
H         2.58915775041944    3.88881460333330    1.63713884485622
C         0.91552891427057    9.53977755909425    2.22354212682561
C         0.03196107686137    9.28835461617249    3.44689763048336
H        -0.86312299910666    9.90467443739715    3.39365167116855
H         0.57140165858279    9.54818716988484    4.35855428471019
H        -0.28063669059336    8.24995652109576    3.52549992278046
C         0.18123241752901    9.18365877427857    0.92375692012102
H        -0.74572088119119    9.74876699255279    0.85185093107277
H        -0.05785468280171    8.12733745270881    0.86387860067713
H         0.80953632868281    9.43977281920652    0.07113135326829
C         1.19143882095883   11.05294273234300    2.16616878815722
H         0.27097042683488   11.58259510238006    1.92925874456845
H         1.92718865850887   11.28104502117577    1.39665585823563
H         1.54800474996315   11.42446091366125    3.12435830084029
C         6.07744930107749    7.96864610481552    1.18806983984744
C         7.17119612642140    7.17320424401364    1.90100161053701
H         8.05158401365586    7.10379326012473    1.26491360220201
H         6.82627719806739    6.15437481951403    2.10288437057128
H         7.47291812791277    7.62977920937344    2.84072974938775
C         5.87465236178010    7.31796960166404   -0.19330153335045
H         6.70534821464648    7.57646295222221   -0.84676155941877
H         4.95442966236224    7.66889150853669   -0.66405907284615
H         5.84120346161438    6.22997948235468   -0.12612556717251
C         6.56467787226704    9.39239975312942    0.89713007692121
H         7.47906161845404    9.34172569743564    0.30841001756480
H         6.78648859910017    9.95945289755371    1.79226524313925
H         5.81895515201075    9.92899698159886    0.30946950777946
C         4.97080341243047    9.60766350525667    4.11513747272600
C         4.58338389198777   10.80157090286763    3.23980186102181
H         5.06911987329623   11.70039483141022    3.61572245521357
H         3.51207942003662   10.95885770852706    3.28241624522535
H         4.86211303479339   10.67648870623994    2.19957875622945
C         6.46307522603082    9.69847404700331    4.46994662802120
H         6.68698041147554   10.69629632799300    4.84335190045440
H         7.11328741858652    9.50573210232145    3.62475707211605
H         6.71177112393088    8.98898851675779    5.26117840269187
C         4.22580169060605    9.79908658542335    5.44665658644980
H         4.55256706468885   10.72683661870410    5.91253810575220
H         4.43082229521037    8.98557677353032    6.14075189690215
H         3.14827735235539    9.86601544382189    5.29329705092606

