73
CSD_code = QOFSEL | q = 0 | S = 0 | Stoichiometry = C25H37O5P5W | MND = 6
W         5.47543124027078    3.16121657718100    4.49666485941666
C         6.38236138702761    1.58500903673416    5.27885669348492
O         6.91558167275128    0.68369935633544    5.73739318242788
C         4.99764746326110    2.10069020519366    2.86648981351494
O         4.76471604087687    1.48879889656296    1.93155429013918
C         5.98898170214184    4.24866351607889    6.09270506066252
O         6.30512282541240    4.86885783476622    6.99854391986130
C         7.18995893460958    3.68719994844612    3.61222519687395
O         8.19855280514839    3.95619135882871    3.15008011661205
C         3.81034033120211    2.60701522774342    5.45818511369660
O         2.90579300155862    2.26109821147030    6.06427690672941
P         4.48916017446209    5.28513467273733    3.56502774509140
P         2.77072183538171    7.87786997046406    3.81899751067506
P         3.37449626575367    8.84709412043371    1.06006032515604
P         4.06511030549173    6.17343507700070    1.62013915503221
P         5.52479494394496    6.91543640866328    4.48953255036514
C         2.91007610996337    6.15433906898322    3.07399459596910
C         2.24168377823076    8.79246939232684    2.32292959797259
C         4.74632858196485    7.92505861052539    1.96752953865118
C         4.60938153693678    8.22407963159459    3.49393272319398
C         1.67088375108900    5.26102768099989    3.02644927104534
C         0.65683139400965    5.82916543869155    2.03866005907339
C         1.08110635888123    5.19522482548603    4.43477567199883
C         2.03342104614871    3.85138587233629    2.55117822851264
C         0.93020993851933    9.55643203247369    2.24204554982543
C         0.04714145234006    9.28051727215680    3.46051188527129
C         0.19765698155439    9.21824214912246    0.93661616025635
C         1.20000907918749   11.07134499086463    2.21061148476886
C         6.08845662209617    7.99913471960096    1.16443641753495
C         7.18913176828416    7.20037627041144    1.86324793488101
C         5.87688117838990    7.35757160697206   -0.22001287840669
C         6.57178383349516    9.42535950211218    0.87862798482268
C         5.00216681821527    9.61808710417282    4.10872398825703
C         6.49756023827361    9.70884960705894    4.45071613594491
C         4.60566120762407   10.81688603871017    3.24401173034648
C         4.26939179771377    9.80198328131718    5.44819182412305
H         4.59873011119837    6.87808538731541    5.55740570750929
H         0.31169032521568    6.79857137294108    2.37572988760728
H        -0.20276116835345    5.16804874757636    1.95051545174172
H         1.11734439403084    5.93708278913662    1.05602494027991
H         1.82971736558458    4.81898261553000    5.13328223262660
H         0.21740844860361    4.53492040911307    4.46177174693426
H         0.77337386500922    6.18776231754962    4.76639779554993
H         2.60952649089148    3.31263196747475    3.30248173134754
H         1.12695379557586    3.28232163891889    2.35419459809490
H         2.61294837783347    3.89891038027849    1.62600051413519
H         0.58426665081470    9.52891003379630    4.37671883740243
H        -0.85154978760418    9.89233284223234    3.41640846149844
H        -0.25922047947745    8.23913930734219    3.52172056858058
H         0.82233584901118    9.49586061796842    0.08808153032257
H        -0.03117246481269    8.16077721817090    0.85745854478306
H        -0.73470961451981    9.77577162071729    0.87613280522505
H         1.55990331792493   11.42658927438590    3.17377545679501
H         1.93120584862761   11.31609846795876    1.44189040386788
H         0.27639394369501   11.60164239785027    1.98768207466822
H         8.06626767228539    7.14228310635844    1.22160681171350
H         6.85081282791175    6.17862354452847    2.05637412201231
H         7.49386595873475    7.64787746319311    2.80610779864151
H         5.84480953951745    6.26927830944572   -0.16039689981024
H         6.70313501852739    7.62127348569488   -0.87701468265918
H         4.95357813013776    7.71111804988423   -0.68261192169195
H         5.82149368554938    9.96422504322815    0.29888954480405
H         6.79845412652025    9.98783621058386    1.77536905543926
H         7.48239452417175    9.37962792242687    0.28366635731245
H         7.14056996296358    9.51981986410410    3.59929434622485
H         6.75401987074643    8.99696563184428    5.23708732096456
H         6.72375903656834   10.70557230763056    4.82567533877744
H         3.53456777053250   10.97269261721096    3.29684976870646
H         4.87557827758518   10.69857512181570    2.20066367418060
H         5.09352718720384   11.71409322113475    3.62109676748169
H         4.59903049594201   10.72826004586051    5.91498170060078
H         4.48243538306864    8.98599828004229    6.13676791500384
H         3.19038086057465    9.86779485420560    5.30560934955044

