64
CSD_code = QOFSUB | q = 0 | S = 0 | Stoichiometry = C31H22N8O2Os | MND = 6
Os        2.45340372587585    3.74380140608296    0.26359140670652
O         3.35763740603958    2.94201910484041    1.98203241657595
O         2.95037886207735    2.06566595475476    3.96991245041205
N         0.85639027068275    3.55710593796423    1.49043060244002
N        -1.04916025988449    3.45754748599414    2.63832141845833
N        -1.46411049896570    2.40695011681412    5.35949493312633
N         0.70620870838458    1.87245454593132    5.47359395975164
N         2.41842803257973    1.82109181296433   -0.27729427634320
N         4.21054869209507    3.62292254545162   -0.67906764432516
N         1.44176873480746    4.62364675741370   -1.19677772414022
N         2.52594973196442    5.61952208619387    0.87654429766099
C         2.55468827558011    2.61911758257308    2.94187489710590
C         1.14170031564684    2.98037940844081    2.70592529140744
C        -0.46055580473423    3.81487126919319    1.51975362174116
H        -0.98280240096281    4.27052353078977    0.69572492810164
C        -0.06583629886998    2.92659250527912    3.41340728033360
C        -0.31042217836424    2.41677089687789    4.73330650745134
C         0.16235014529684    1.48862459952542    6.66132570517780
C         0.69101432916046    0.88766417839919    7.79288900581806
H         1.73815878044466    0.62861880297371    7.85011137741331
C        -0.17654823267786    0.63721293056839    8.83665894506785
H         0.19686085268459    0.16966717745373    9.73690477386633
C        -1.53092829711199    0.97388465172116    8.75944504073266
H        -2.16906219625178    0.75733779992146    9.60495870391735
C        -2.06743252837058    1.57123538639035    7.63922797929026
H        -3.11253237176298    1.83173205448264    7.57953224624488
C        -1.21414581682524    1.83460235738926    6.57120701007306
C         1.41704557578394    0.96190456640063   -0.07379095154126
H         0.45759277153094    1.39643707483204    0.17465938839948
C         1.57048066581183   -0.40733789306629   -0.15037508582827
H         0.73134109526877   -1.05477714618496    0.04518299320332
C         2.82322432175287   -0.92575190979812   -0.46202683926694
H         2.98254053104552   -1.99132278645761   -0.51316416334759
C         3.86181147528933   -0.04780846372263   -0.70010780746225
H         4.84332086374702   -0.42323620999786   -0.93902462454618
C         3.64079137363519    1.32610504545264   -0.60314674890253
C         4.65016251474455    2.34706245458637   -0.84790938868626
C         5.95698640919858    2.07956570818654   -1.25762401369166
H         6.28852931881089    1.06098649700238   -1.37429997430113
C         6.82605061145605    3.12205774896960   -1.50460523432557
H         7.84184278309544    2.93192201344011   -1.81182984919212
C         6.35977602258365    4.42574596362588   -1.35063756539458
H         7.00116262806742    5.27124987752593   -1.54006475556024
C         5.05961281743258    4.62187101426927   -0.93996817790859
H         4.67177545305239    5.62423656270172   -0.80661413922983
C         0.93600251386710    4.02881832492418   -2.28766642096850
H         1.19046804044658    2.98465856430232   -2.41839874046036
C         0.13153523353974    4.67199190743511   -3.19991422286087
H        -0.24895345128015    4.13716489129316   -4.05494406807505
C        -0.18586130791785    6.01437773204030   -2.99571583637418
H        -0.82284892069568    6.54265188355132   -3.68661053661702
C         0.33458101495939    6.64839833274874   -1.88708376351497
H         0.11096638337043    7.68570305425343   -1.69975393248601
C         1.14775421850034    5.94407092560201   -0.99940882790081
C         1.75814084825933    6.50875162652618    0.19068901381102
C         1.60428981286271    7.82292756065204    0.63408021228474
H         0.98293589159840    8.51021466210329    0.08369319800396
C         2.23826318450748    8.22994643000832    1.79010770966523
H         2.12082056650047    9.23815331391902    2.15460856806229
C         3.02631193931415    7.31167615461335    2.48025278982523
H         3.53324683202968    7.58839060045471    3.39010893130073
C         3.14223335867837    6.02904762113992    1.98877631088298
H         3.73967908501833    5.28272088066628    2.49630891437567
H         1.67123754559084    1.80816252962657    5.14168248456120

