68
CSD_code = QOFTOU | q = 0 | S = 0 | Stoichiometry = C32H30Cl2S2SiZr | MND = 12
Zr        6.33805792161461    3.93856607520310    6.35806356643352
S         6.13706657378117    2.08101381321906    3.19161840740027
S         4.30891719123970    6.67464972092080    7.74002240710946
Cl        6.53301499279307    3.80763190140064    8.68541383378682
Cl        8.49189582743882    3.14436847467290    5.90998093291563
Si        3.82408225029080    4.92935436240100    4.34631679062138
C         7.05467024744632    0.78910863015831    3.96549214295040
C         6.74979256297348    0.62760870874017    5.28369006913104
C         4.99679533580360    1.86830419179596    6.88332275231170
H         4.99937175148356    1.31964348215979    7.81730462014481
C         4.11652868834736    2.92582951811114    6.55611014115152
C         4.27190265977341    3.28444060391355    5.17514808771488
C         5.75335901559991    1.56501385945338    5.72072633266023
C         5.31976676626596    2.44590397187581    4.69151592143248
C         8.07560187276167    0.08128706054643    3.14801345284675
H         8.82574407554982   -0.36731458904050    3.79579732549566
H         8.56408645353814    0.78143220427370    2.47221262040806
H         7.61895726323252   -0.70391980615038    2.54292262968629
C         7.38997458125939   -0.30411020611024    6.21641729691491
C         7.63242687559761   -1.63293140819000    5.88038500425325
H         7.32419052570789   -2.00400613461122    4.91452033739997
C         8.23654626505774   -2.48412403932954    6.78779652528105
H         8.41678775935328   -3.51462812771445    6.51769984861515
C         8.60651831905680   -2.02046981559276    8.03864664355588
H         9.08046576769499   -2.68609535275931    8.74485060848069
C         8.36421308993376   -0.70012222596130    8.38240730941484
H         8.65178704421982   -0.33331762793553    9.35666828212731
C         7.75601308416141    0.15442538465491    7.48273854218792
H         7.58763490990876    1.19321496723327    7.75261385085983
C         3.11338458112597    3.48181270165991    7.52693537037138
H         2.35553321212768    2.72966389586174    7.75466571779669
H         2.61181250129022    4.35790994549793    7.12612622426205
H         3.60618160419127    3.75016954479881    8.46570748746348
C         2.20717885619105    5.76976589498438    4.90317424226842
H         1.92437984381080    6.52191025319815    4.17464651707114
H         2.30220538208006    6.26784915587722    5.86221907590176
H         1.39207207599356    5.05688631380326    4.96743914214669
C         5.67028747216995    7.06792180988663    8.78965262280239
C         6.88128367095270    6.87270313747784    8.19625525600235
C         7.56249489175089    6.05498088998561    5.73891669692865
H         8.63603395126729    6.17963104258772    5.66587811843949
C         6.70635858042226    5.68183823168292    4.67682136968730
C         5.33584408708300    5.80201414400841    5.08557604015654
C         6.74570130722390    6.38194322287650    6.85334849711417
C         5.39230841040898    6.20534235492918    6.45280605308832
C         5.36894807245841    7.49129187195766   10.18305257379245
H         6.22812678057780    7.30321401394759   10.82339831083409
H         4.51385124482467    6.93624732191673   10.56546350413244
H         5.12424238803222    8.55403651121995   10.22663710005665
C         8.19437673293104    7.03398242804562    8.82687300485022
C         9.16336525962151    6.04940201753210    8.62822662267633
H         8.92891158635107    5.17009588779930    8.03482323204084
C        10.40929414844736    6.17232504499266    9.21315825694922
H        11.14929376622858    5.40058374594439    9.06066316784001
C        10.70985125334500    7.27770213176476    9.99286696293047
H        11.68513464867720    7.37146699662616   10.44724636145741
C         9.75648688944928    8.26286454121818   10.18533291488414
H         9.98839930435153    9.13013595271678   10.78653937802904
C         8.50561443563138    8.14365722862494    9.60743184117030
H         7.77257729551165    8.92501974140033    9.74054982437055
C         7.21345084987687    5.32084669092105    3.30920695939756
H         7.66710079958435    6.19359873603961    2.83550753303394
H         6.41322847426842    4.96402542667140    2.66729844835081
H         7.98319757836414    4.54751805873306    3.38466541962446
C         3.76715481510601    4.74725399045857    2.45046455957751
H         4.41746543831610    3.95951484516019    2.08514932137928
H         4.03992226559169    5.67306367504683    1.95527428894996
H         2.75637587250496    4.50035300477642    2.14408569888224

