63
CSD_code = QOFTOV | q = 0 | S = 0 | Stoichiometry = C30H26Cl2N2P2Pt | MND = 4
Pt        7.74155572315651    3.41418088348303    2.33984098569281
P         7.86571397470028    5.31440904801570    1.06182291253090
P         5.58131462891903    4.02083017842532    1.85174877133845
Cl        9.96686300392027    3.10272961933096    2.63985016683250
Cl        7.25038510289987    1.62144377777924    3.62964286193021
N         6.15461062595539    5.42409217222628    1.03348311092290
N         3.20124417037371    6.71631943297086    1.29011892729252
C         5.36336157827346    6.39714625834539    0.29074265179132
H         4.75156178319919    5.89363359721244   -0.46625630995057
H         6.05698222832790    7.08127438030372   -0.20636505362284
C         4.45194065744640    7.15350076441573    1.21901211276615
C         4.91520686818740    8.21452528167120    1.98926861086497
H         5.93955787480704    8.54325881007056    1.90267497371560
C         4.03831373851764    8.82908498680086    2.86616216095209
H         4.36720395538788    9.65649009458489    3.47781478170434
C         2.73499682448768    8.36388729153063    2.94569225310465
H         2.02119735465914    8.81181688352668    3.61840975484563
C         2.36979066189550    7.30415418234618    2.13188386258068
H         1.36527988456830    6.90233025925355    2.14933782992265
C         8.39508287703714    5.44331755668081   -0.66372462648346
C         7.61441907856321    4.89945425471155   -1.67998840428484
H         6.65186481364284    4.46594129623119   -1.44214613273605
C         8.07662311862178    4.90728047958022   -2.98275844716737
H         7.46665323898004    4.49301741954307   -3.77192677445621
C         9.32521536559687    5.43435628095724   -3.27383497318777
H         9.68512679164981    5.43637974364211   -4.29178322872574
C        10.12061160377574    5.94199255213420   -2.25827005905222
H        11.10203309717308    6.33188895705851   -2.48372103401500
C         9.66322575330123    5.94109860744301   -0.95379078018208
H        10.28394839121972    6.31555524536589   -0.15138747398286
C         8.37382102733981    6.87189934808807    1.84701854139123
C         8.47266718808984    8.08924613154639    1.18115021664825
H         8.32450441848426    8.13808026354233    0.11061985850587
C         8.77313042053629    9.23681716748075    1.89461808520358
H         8.85052740394962   10.18344537199346    1.37958984460958
C         8.97424939170697    9.17431247146974    3.26497604318313
H         9.21003370850825   10.07409352495291    3.81365588379324
C         8.88416875384274    7.96098755213030    3.92939643427713
H         9.05324779216731    7.91233059509673    4.99455946712289
C         8.58514926774324    6.81158594064194    3.22129222103617
H         8.53035528616159    5.84516712532881    3.71540524775365
C         4.59942671473223    3.15781888422456    0.59777336618734
C         3.38680088761232    3.64532225352299    0.11663347645154
H         2.96308213826927    4.54775788911587    0.53617752140376
C         2.74232662560103    2.96465922977828   -0.90178903224085
H         1.80196023287972    3.33659961090069   -1.28186985077958
C         3.29582525491355    1.80997406037616   -1.43410157584352
H         2.78175063016844    1.28347169847334   -2.22481811275022
C         4.50432290648657    1.32812730160013   -0.95571770627662
H         4.93230977703464    0.42825385327641   -1.37122916006232
C         5.15946346103122    2.00387138307235    0.05765152700947
H         6.10474842895143    1.64568718427176    0.45209739710630
C         4.43120785470173    4.61814666344457    3.11528698965558
C         4.88093397106899    5.62863094737693    3.96117855507101
H         5.85693304450583    6.06616844215015    3.78950493387503
C         4.08541196600764    6.06622243469138    5.00088987751725
H         4.43203638154212    6.85639501861515    5.65069458841406
C         2.84748727994697    5.47995205926878    5.21773239879495
H         2.22628712518995    5.81977910853254    6.03310707268813
C         2.41571092427443    4.44718046485393    4.40270512800659
H         1.46070230247316    3.97760740571551    4.58696392768471
C         3.20729850770323    4.00648011991774    3.35681495591543
H         2.88023415712021    3.18913819899249    2.73067844772652

