74
CSD_code = QOFTUA | q = 0 | S = 0 | Stoichiometry = C34H34Cl2S2SiZr | MND = 12
Zr        6.92687822963589    9.79935597866510    0.58822737020082
S         7.59713284600042   11.35339308731021    3.84027968695006
S         3.91427050290374    9.30678676864420   -1.35181071669445
Si        4.19412169622010   10.95159937983349    2.11175710026313
Cl        9.16924201864247   10.44817020937941    0.54681722921363
Cl        7.23822855280125    7.93338275504804   -0.78580491718155
C         9.09539702829184   10.42756954198545    3.95668976143604
C         4.93067060780857    9.18591136051186   -2.79132022257063
C         5.99110820050316   10.03832731835966   -2.77386391687021
C         8.99627452108626    9.17687730412620    3.43778353725764
C         6.97850268917131    7.87221826958154    2.26211682097064
H         7.34572226145433    6.87270914280995    2.06035773269489
C         6.84298993817010   11.80720037518621   -0.95820235716346
H         7.68791502643825   12.31305649710389   -1.41001683166365
C         5.65379503874774    8.32379164487091    2.05409042214655
C         6.24959926135634   12.13901667178612    0.28126198610571
C         5.04849100953152   11.37401604174806    0.47254612888485
C         5.50525530253577    9.65909246071903    2.56539699565478
C         6.04323556557031   10.80033425835544   -1.55929899408836
C         7.69652046855188    8.92126539209651    2.89001222027949
C         6.80489011925722   10.02039094873129    3.03419708203944
C         4.96827665869103   10.52235768863602   -0.67048803918166
C        10.08187341111502    8.17635544258048    3.43278384170776
C         7.05835783560257   10.15189093530237   -3.78056255705572
C         4.58992821969402    8.14624335986232   -3.79718460492589
H         5.42536770404386    8.00710031893776   -4.47857939204317
H         3.70263594317429    8.42203115436096   -4.36864059784994
H         4.38557049844281    7.20066751892417   -3.29657928128222
C        10.28282363248185   11.07130296730256    4.57727559898551
H        11.05591696920086   10.32634245090712    4.75291065749607
H        10.01773049236728   11.54585277469781    5.52138795647501
H        10.68525837881316   11.83931998285638    3.91541449732991
C         8.37249610418210   10.00463722809417   -3.33371661333753
H         8.55900622317104    9.80154208867989   -2.28302717309587
C        11.16853016447097    8.33778449842380    2.58333736801425
H        11.20799234491196    9.20273422362532    1.93846774044019
C        12.17893068738846    7.39343580238527    2.55335401690386
H        13.01843732695815    7.52316301137289    1.88673722886400
C         9.43169875915900   10.09142566394897   -4.21472523256157
H        10.44205016904728    9.96532127756960   -3.85596496141031
C        12.10722976506761    6.28513335106591    3.37844133384685
H        12.89211717333534    5.54312264497353    3.36082217737062
C         9.18993660552821   10.34229693995751   -5.55567130273034
H        10.01158188005638   10.40796320829358   -6.25363578068881
C        11.02883969987940    6.12705800378011    4.23185038232215
H        10.98121533970627    5.26275528071406    4.87957693072505
C         7.89318678464621   10.52617064683111   -5.99556870187460
H         7.70705486762776   10.74768948298367   -7.03730403219503
C        10.00527997380042    7.06234394176964    4.27350662714329
C         6.81261546656450   10.44325129390296   -5.12438684786430
C         5.43260335170783   10.71491530436971   -5.64580421012334
H         4.74801599491622   10.95285707523758   -4.83629306179774
H         5.04516689525230    9.84922299430797   -6.18234752865920
H         5.45778358309113   11.55091140126413   -6.34260308456123
C         8.84919506310627    6.89939607095610    5.21395649340957
H         9.01003808006949    6.05473538354842    5.87922942512053
H         7.92423782384420    6.73565890066991    4.66208305628194
H         8.71786900038967    7.79970365257037    5.81324518605762
C         4.56928046147938    7.45735543367571    1.47775418072545
H         4.33785948409818    6.63939829174334    2.16309346164558
H         4.90044395678111    7.01552650619072    0.53391753053486
H         3.65785521790258    8.02263642801731    1.30423686144789
C         6.78077477804780   13.22739254678518    1.17073780323963
H         6.68015204130076   14.19566104215787    0.67655244806764
H         7.84389101031896   13.06642524591455    1.37009893842928
H         6.24461789524107   13.27078780836085    2.11422068875839
C         2.41969857244946   10.32478690929396    1.81091356487805
H         2.10637359181882    9.63456623799870    2.58687265137885
H         2.30524674846785    9.83448189492211    0.84991759345306
H         1.73501458517654   11.16586448935317    1.82857994053401
C         4.11280791337539   12.32910456185030    3.42629336253860
H         3.37656052984867   12.06543031576680    4.17791969515497
H         3.80817256883557   13.27461908369713    2.99053795280950
H         5.05836088867791   12.47700383175511    3.93703969327753

