77
CSD_code = QOFTEK | q = 0 | S = 0 | Stoichiometry = C34H40N2Ti | MND = 12
Ti        1.29407038015441    3.26275807171174   10.01629939466664
N         2.03283039207119    4.49954783334643   13.19055476548545
N         1.01926958061014    2.47964858229258    6.73581768404967
C         0.86274607533320    1.23451547656401    9.95780475519585
H         0.23952545242064    1.17040158692398    9.05180703833998
C        -0.04021760354602    1.34524236375497   11.19620766590685
H         0.47915460862081    0.95816529993560   12.08066336349786
C        -0.23116983423686    2.86393396026460   11.34226475959808
H        -0.13635776958190    3.19269735656791   12.38087242400556
H        -1.22372695081909    3.16303343242137   10.97762725889314
C        -1.36402218400612    0.56892897287657   11.04766079725177
H        -1.90980669586751    0.98304437918984   10.18777920544518
C        -1.10645704052010   -0.91503903329077   10.79304596913243
H        -2.04706552350982   -1.44559571613807   10.65904461400653
H        -0.58212503015874   -1.35789964457349   11.63710032935145
H        -0.49884586898890   -1.06057314856823    9.90381768079507
C        -2.22784948386968    0.73401767897173   12.29806297302218
H        -3.17314721883650    0.20851147155259   12.18028445515943
H        -2.44228270740005    1.78245289606381   12.49063915452445
H        -1.71575853058114    0.32239621468665   13.16592549110688
C         1.91486546624801    0.21831583382387    9.88934640018211
C         2.43218757382592   -0.48216711458708   10.98637426195444
H         2.05458629375814   -0.29700249639201   11.98184765581549
C         3.42270642643182   -1.43297946119975   10.82788427460883
H         3.79975494857273   -1.95845573737356   11.69468875981958
C         3.93142819879441   -1.72410705183669    9.57335911843020
H         4.70229148816781   -2.47122719559765    9.45549549404608
C         3.43366247306765   -1.04529554150414    8.47136410847607
H         3.81991868778359   -1.26330479518065    7.48536055770081
C         2.44703907888867   -0.09520615839781    8.62766638242949
H         2.06470716980285    0.43175975283317    7.76333914637498
C         2.04952571292118    3.57176012585229   14.29524892337766
H         3.01422068083069    3.06730634696720   14.33231704875828
H         1.25652528511076    2.81311865664443   14.23059975404674
H         1.92104861066329    4.13103627056525   15.22152550102965
C         1.06816145945770    5.57412169950058   13.29365584374681
H         0.76312251823447    5.91374274064597   12.30311691247510
H         1.49662236801731    6.41880210494983   13.84206531888387
H         0.17382967219942    5.23766267403903   13.82760343398789
C        -0.18955037601621    1.85461983608309    6.22729037074943
H        -0.96075775742430    1.84103061964325    6.99443094798373
H         0.03474199467101    0.82443325876363    5.94677065579934
H        -0.58281205334643    2.37752610555488    5.34398384040442
C         2.10041065038491    2.44795764852659    5.77102315522447
H         3.02215707131118    2.76352382399780    6.25892612506532
H         1.91011493774634    3.09252406505334    4.90154328680081
H         2.22663310282499    1.42414767189140    5.41755094616914
C         2.99164488336978    2.80242473592617   11.63276063981921
H         3.10923303983694    1.97239117356597   12.31398068300409
C         2.48612814348715    4.08659565848183   11.95773842970733
C         2.64551429356663    4.93201814790367   10.82290012500669
H         2.48689273584524    6.00293265573745   10.81263770246468
C         3.42669530157633    4.22602458320376    9.85866666900150
C         4.07131261480363    4.63786111263016    8.68103880117991
H         3.99620475916835    5.66585259972809    8.35313296526676
C         4.86223672265101    3.73695417238899    8.00462261762883
H         5.37963934327900    4.04704504837381    7.10698479604132
C         5.05255151304609    2.43245143070680    8.48275471668127
H         5.70357753194472    1.76400007493505    7.93797230157188
C         4.46852580450903    2.00654506424552    9.65373362650096
H         4.69060064486700    1.02755818073598   10.05445757379435
C         3.63251205055211    2.88778943239326   10.35690281269838
C         1.55149731955560    4.86707060003884    7.20757401874547
H         2.29829025401627    5.04714769449275    6.45495828386721
C         0.85523843675241    3.69566726171054    7.41522871147977
C        -0.06504059118453    3.86214108229710    8.54025321507879
H        -1.05592727608022    3.40463058963452    8.52877006710844
C         0.06616801692128    5.26034979816232    8.93185980440889
C        -0.61746961837730    6.03087095692995    9.87262177281733
H        -1.42763749672081    5.60542128304783   10.45605748433156
C        -0.26381537357387    7.35913001237467   10.03062871023207
H        -0.78658558779352    7.97078317484706   10.75272569577574
C         0.75087493829275    7.92980968188562    9.26151925879530
H         1.00179837215222    8.97059974745902    9.41008931076995
C         1.42522677071907    7.19197355176569    8.30914945664827
H         2.19629681608928    7.64924516473637    7.70430236914127
C         1.08500990650963    5.85288361184602    8.12791937666645

