81
CSD_code = QOFVOX | q = 0 | S = 0 | Stoichiometry = C38H39IP2Ru | MND = 8
Ru        2.70490649196786    9.01868664478603    3.18271534352913
P         3.55085719883226   11.02012843544606    3.74522883111336
C         5.29624758152373   11.45323621310339    3.41674532022159
C         6.14740954124656   10.44602398224682    2.98325289035825
H         5.73257746788785    9.45700998135616    2.82603124675213
C         7.48940632135001   10.70460133144002    2.76768895578570
H         8.14787210386944    9.91610857825215    2.43078773980702
C         7.98528818841435   11.97936655922390    2.98471491309563
H         9.03153237260653   12.18821498534847    2.81552586676098
C         7.13998581890252   12.98971169507148    3.41841738154568
H         7.53096942944295   13.98274928579660    3.58699574656764
C         5.79929484852839   12.73147920074371    3.63620531442936
H         5.13565508374366   13.51835770213238    3.96899270463620
C         2.70963392410876   12.53925166633737    3.21455997359799
C         1.67807797535679   13.13094755291428    3.93527384585444
H         1.41328784066533   12.75211031716907    4.91002501887170
C         0.98506747321416   14.20192587629747    3.39986397672526
H         0.18339512025149   14.65594302334703    3.96388475709737
C         1.30680276760079   14.68697462043151    2.14322077116569
H         0.75836411639929   15.51927394773492    1.72708975936365
C         2.33168165414721   14.10029379197199    1.41764976717408
H         2.58498724581538   14.47620167254041    0.43626888519023
C         3.02449967615588   13.02957126502550    1.94833801835001
H         3.82840242450777   12.56511917843629    1.39050878657765
C         3.56234908915489   11.11290996549576    5.59731770824104
H         4.08058069224247   12.01392450415045    5.94151971109315
H         2.51651046563534   11.13520775025887    5.92030009950136
C         4.22665352899491    9.84112450461535    6.11214646567191
H         4.07034688488202    9.72068248352972    7.18786974451192
H         5.30185592878370    9.88346298059275    5.91453235097338
P         3.51038580539778    8.38177181153791    5.18894072112320
C         4.85584956638158    7.14609799702371    5.27849838133585
C         6.18163253556820    7.47482245246877    5.00968370297618
H         6.46282992429764    8.50398217459533    4.83862517331717
C         7.15276763902106    6.49124309636048    4.95644648009743
H         8.17944906110597    6.76248740032649    4.75571432953322
C         6.81330134887221    5.16278735773993    5.15258060667626
H         7.57244983862884    4.39600635920672    5.10628438272345
C         5.49385355066275    4.82254015041926    5.40240486853391
H         5.22053232402182    3.78748513634356    5.54974787391632
C         4.52244832750150    5.80467473845783    5.46036406668759
H         3.49364985289216    5.53651120124288    5.65840364940169
C         2.39040534055913    7.67741773700351    6.45279928912429
C         2.83585745851314    7.38133032035964    7.73867051467392
H         3.86905079237138    7.56190203825970    8.00625692307375
C         1.96447673174484    6.83903559997419    8.66384658009716
H         2.31119469323246    6.61309025705105    9.66219821698077
C         0.64773667069840    6.58104590314337    8.31327309343649
H        -0.03007798574820    6.15984012953583    9.04135861760878
C         0.20495797300609    6.85820599011421    7.03115587925874
H        -0.81919527937204    6.65271239425318    6.75574827640363
C         1.07546599639344    7.40172979283468    6.10280638479067
H         0.74626531380432    7.63742383379788    5.09847413422957
C         1.10051950744694    9.85667535786045    4.07927254651525
C         0.02592299898461   10.32024487755557    4.37256647986021
I        -1.75599980587777   11.13000630589225    4.97771205018378
C         1.82926579236813    9.02383334107790    1.16899716884517
C         3.24949281068456    8.89471158870596    1.00171606642092
C         3.66707777354042    7.69480480523523    1.64205936750776
C         2.48837095913123    7.04218314710446    2.16263137793495
C         1.35977179349567    7.84471524910997    1.84245582186398
C         0.94876956266831   10.02467277517072    0.47926252450547
H         0.73331715722519    9.69677023905390   -0.54097428512395
H         1.42224459789430   11.00511376154150    0.43487594937211
H         0.00600285229946   10.13438101552460    1.01153454530238
C         4.09137534848469    9.74034037342341    0.09230741733926
H         5.07315647641301    9.95287961673930    0.51446094855927
H         3.59827287190813   10.68578474526653   -0.12317350139605
H         4.23716070496675    9.21129500953871   -0.85289107450347
C         5.00155285846633    7.02421275147998    1.47649139632491
H         4.91881259775309    6.22821073243644    0.73192637567519
H         5.34959934919008    6.57576158746523    2.40768912800067
H         5.75525210554702    7.72956661693363    1.13123284295064
C         2.44758478570943    5.62334733511725    2.65046726231861
H         1.68160282329357    5.48307234208953    3.41225341139371
H         3.40726160186523    5.32749576106496    3.07038349933268
H         2.22110835128690    4.95802868616124    1.81321003265519
C        -0.08028502455775    7.45309642847122    1.99040528376595
H        -0.47913698693449    7.15791810124181    1.01721793376554
H        -0.67810928536032    8.28313858877853    2.36484733811782
H        -0.19025131371004    6.61399529209808    2.67450805196546

