101
CSD_code = QOFYOA | q = 0 | S = 0 | Stoichiometry = C36H42NiO6S16 | MND = 6
C         7.17481696421531    1.55959691743177    2.72775194715398
H         6.49141623942315    1.53769045176268    1.87874827154971
H         8.20321987520065    1.56231232809336    2.36707843563980
C         6.93005467852216    0.39175909122022    3.65915672473884
H         7.43928262437629    0.53064126524949    4.61285978305339
H         7.25468946224996   -0.54403556254515    3.20475318782287
C         5.42139691937355    2.92081701958004    4.35135825313540
C         4.72770499383411    1.78482035345770    4.50102314432779
C         3.21127264399155    3.63581220511907    5.51574577790447
C         2.16533512475713    4.31549412248316    6.01606693472783
C         0.47463213020182    6.14113557191297    6.73583215867899
C        -0.18530820361740    4.97836001647779    6.85843282618740
C         0.23316404911307    8.65783730117386    5.69387448562077
H         1.31498728495132    8.67798984682487    5.60317030449473
H        -0.15077125952747    9.65875169639601    5.85843362256882
H        -0.22300444405834    8.21831813439391    4.81235570476716
C        -2.14578484803159    3.12895446107962    7.01257173974768
C        -2.50211092137850    2.75001530293572    5.70282329975409
C        -2.60791250009965    3.81999902373654    4.64110307525404
H        -3.01070243884284    3.37892779245188    3.73392567452540
H        -1.62064142045277    4.22810979054267    4.43133270936207
H        -3.24701396171610    4.63208369796993    4.97931550882558
C        -2.02436096733953    2.18588937869134    8.05469294671359
C        -1.63020763291381    2.67300697836482    9.42932397137312
H        -0.62935433518408    3.09884968155244    9.39719044085298
H        -2.31581623091772    3.44527452298478    9.77040475297256
H        -1.64097640842572    1.83369784165077   10.11895427326626
C         0.31739443832043   -1.55983322674994    6.13111403264502
H        -0.23176007740447   -2.46166980863131    5.81898595190757
H         0.41286214323583   -1.56145212723109    7.21863727115849
C         1.64555963080948   -1.46307345131889    5.38819334575125
H         2.32268715031537   -0.78662342018371    5.90958639195351
H         2.12834525555633   -2.42936924823204    5.26535475090142
C         1.19737567931774   -0.84290702108497    4.06688991183218
H         0.81251100438485   -1.61475124216463    3.39964328267089
H         1.99867840427764   -0.30754157407043    3.56300880389603
C         0.07049845743497    0.09210048478874    4.51290486933379
H         0.43980880560195    1.11182557556620    4.67814441691498
H        -0.76048763840500    0.12803620345208    3.80223115578918
Ni       -2.71616626648003   -0.00003652046685    6.38099119590106
O        -2.21754450076063    0.95996472758128    7.91641587001189
O        -2.72296696266627    1.57213598156814    5.34846717185828
O        -0.40933567155601   -0.39708459260988    5.76568766380659
S         6.98603399664435    3.15721374855967    3.58682260211058
S         5.15107908885306    0.16138083855610    3.97687411339547
S         4.72083133684026    4.39850456238631    5.01776586868193
S         3.16897412727990    1.88516161602398    5.31989349232922
S         2.17303982750949    6.05753168621834    6.23544910934383
S         0.68400984062316    3.48924119734090    6.50496144638334
S        -0.23114988933322    7.68542956202465    7.16338133382046
S        -1.86026160109684    4.84756650519132    7.36947896242539
C       -12.60727918699177   -1.55943215840103   10.03391677415993
H       -11.92391385147453   -1.53753892132975   10.88294850586686
H       -13.63569606101174   -1.56212032711972   10.39454585669201
C       -12.36245315123224   -0.39160732404053    9.10251320479015
H       -12.87164689097218   -0.53048011265028    8.14879017410429
H       -12.68707675180309    0.54420017401115    9.55689785247706
C       -10.85383267414353   -2.92071291614047    8.41039846886544
C       -10.16010425076919   -1.78473661511307    8.26075077993068
C        -8.64367729058673   -3.63577621303656    7.24610772409296
C        -7.59773650690455   -4.31548570585596    6.74582942956667
C        -5.90705080459306   -6.14116011053435    6.02610289447333
C        -5.24708220085951   -4.97839912458481    5.90352298975877
C        -5.66555415370472   -8.65782338149818    7.06812369199978
H        -6.74737332913197   -8.67795904449363    7.15888100832049
H        -5.28164104687248   -9.65874773324399    6.90357555518825
H        -5.20933607622210   -8.21828557129967    7.94960810328320
C        -3.28657107130552   -3.12902606887333    5.74941428440494
C        -2.93025958136986   -2.75008554615950    7.05916676063639
C        -2.82446515846856   -3.82007003074736    8.12088611975043
H        -2.42166681213379   -3.37900335062960    9.02806194147942
H        -3.81174289934235   -4.22816321812447    8.33065820331625
H        -2.18537785950806   -4.63216662514058    7.78267484766341
C        -3.40795940212424   -2.18596404783715    4.70728516339630
C        -3.80212236111900   -2.67307573138588    3.33265545313867
H        -4.80297681509965   -3.09891732403124    3.36478372680211
H        -3.11651406424488   -3.44534300457221    2.99157565108514
H        -3.79134845513762   -1.83376527897030    2.64302680511224
C        -5.74970576431674    1.55980551203278    6.63089491008250
H        -5.20053107288712    2.46162823886629    6.94302682362721
H        -5.84518491410571    1.56143903140601    5.54337266332014
C        -7.07786666717863    1.46306350032199    7.37382596777554
H        -7.75501897370924    0.78664483449202    6.85242431235683
H        -7.56062431024580    2.42937006430289    7.49669087905253
C        -6.62968847044645    0.84285639990195    8.69511222749496
H        -6.24479976000615    1.61467617077348    9.36237332360619
H        -7.43100102920493    0.30749947633737    9.19898644826285
C        -5.50283899512086   -0.09216974326250    8.24906751671282
H        -5.87217883498751   -1.11187960416251    8.08379786660459
H        -4.67185269213340   -0.12815094237064    8.95973843530127
O        -3.21477546908629   -0.96003964855957    4.84556514102138
O        -2.70937815208140   -1.57220924763069    7.41351690782126
O        -5.02299108176309    0.39704012999045    6.99630017852772
S       -12.41850721479032   -3.15706469770886    9.17486879602676
S       -10.58345780879109   -0.16127938772475    8.78486540911336
S       -10.15327230015358   -4.39842594274460    7.74403926850133
S        -8.60134054468035   -1.88512601529386    7.44195410046113
S        -7.60546631096923   -6.05752247184008    6.52645158827607
S        -6.11637631534472   -3.48926450720272    6.25698523980940
S        -5.20129345380669   -7.68546920902329    5.59856302991648
S        -3.57211515404141   -4.84763631693878    5.39251402587243

