57
CSD_code = QOGJUR | q = 0 | S = 0 | Stoichiometry = C19H34IrNS2 | MND = 6
Ir       -0.21368398411836   11.52264042684733    1.90260822588009
S         1.12733438142840    9.52651854796729    1.40921822021246
N        -0.21329083343869    7.27397469826061    1.90350523621059
C        -0.21317849474348    8.61083614266837    1.90341620320712
C         0.92513895387369    6.50258848921407    1.47414595352329
H         1.72090252959426    7.17060337310292    1.15160785004866
H         0.64206013276507    5.85293974625650    0.64218388199042
H         1.28887913552361    5.88221915757214    2.29739580274524
C         0.98744632708386   12.96523138341176    0.84175153182968
H         0.44149076367255   13.89162129667732    0.65777798614038
C         1.62968791011729   12.42702515156336   -0.41349117487971
H         0.85455773199820   12.32237577643488   -1.17696748053176
H         2.05964801672464   11.44032176007274   -0.24558726830385
C         2.71940543064926   13.35371344157540   -0.97127502042868
H         2.94335573258522   13.02659752126481   -1.99013038145197
H         2.33165319186520   14.37340083741441   -1.03250488934128
C         4.02888253398846   13.35796906610267   -0.17944515316381
H         4.36466760936922   12.33044613300302   -0.03268720670454
H         4.78013731111246   13.85233976816711   -0.80058794490333
C         3.95285856848485   14.08080846362212    1.17305000336451
H         4.81017156066450   14.75157269003269    1.27084940893956
H         3.05659612323956   14.70067182812239    1.19816709810514
C         3.95975401175764   13.15579598523493    2.39097144792118
H         3.87452882599801   13.77475327538118    3.28790898556799
H         4.91720030354365   12.63197749404607    2.44141273087763
C         2.83412931197160   12.11201939538077    2.39319614811240
H         3.04054244694220   11.35500023928465    1.63977309893631
H         2.82592904775142   11.61688752328395    3.36696676636376
C         1.51039823956059   12.78318902923573    2.13660439680245
H         1.31469722063021   13.57030595391450    2.86564262933758
S        -1.55283732886533    9.52681860807139    2.39945218196480
C        -1.41364984548932   12.96523473183876    2.96540457749497
H        -0.86786469630864   13.89171361696489    3.14947338533812
C        -2.05587052311790   12.42695162188187    4.22064671912266
H        -1.28075192011558   12.32227050672802    4.98414288406029
H        -2.48586092252284   11.44026078315699    4.05269232105959
C        -3.14565716009538   13.35355741714520    4.77847818625347
H        -3.36963529673860   13.02643099131772    5.79732963046621
H        -2.75795319458627   14.37326048532643    4.83973413793822
C        -4.45513062226293   13.35782147008661    3.98662424483960
H        -4.79090420652673   12.33029837026076    3.83983313608298
H        -5.20640446328291   13.85216076629605    4.60776587814868
C        -4.37921296939185   14.08071277592341    2.63415105485697
H        -5.23654805376677   14.75144890011622    2.53638755303691
H        -3.48296145132541   14.70059761084993    2.60899654664283
C        -4.38625205235231   13.15574941462138    1.41620086158152
H        -4.30103174106811   13.77469470346621    0.51925237740449
H        -5.34363701149614   12.63182493269580    1.36576582090863
C        -3.26062145330646   12.11205031368031    1.41398298021991
H        -3.46696652086822   11.35494721514894    2.16733829114706
H        -3.25229596566779   11.61699575778983    0.44017680786909
C        -1.93715175196584   12.78365369662415    1.67069927832709
H        -1.74125456728839   13.57060328370628    0.94155307921433
C        -1.35174794960807    6.50271636183786    2.33306880397555
H        -2.14749362538858    7.17079418838372    2.65551081819085
H        -1.06869680673774    5.85317300196443    3.16513594809798
H        -1.71550794045323    5.88221387899770    1.50992540934500

