33
CSD_code = QOGMIK | q = 0 | S = 0 | Stoichiometry = C7H13CoN12 | MND = 6
Co        2.13578479542956    2.84535397792506    3.22193745719259
N         1.75216886760643    4.06108250697070    4.61248686301173
N         2.54038978227713    1.50674767119546    1.73385612692808
H         2.95878310075605    1.93884676018682    0.90988559270040
H         3.24727516304067    0.88917474111992    2.13552159847061
N         0.33740063632750    1.66690183476055    3.34259639821571
H         0.02974572439313    1.48252081483549    4.29340006991325
H        -0.40607209266931    2.16972725827036    2.86071923435395
N         1.22075606253991    3.94056510004389    1.99182945268073
N         1.35629938593779    4.08183863272269    0.83781821102171
N         1.36404415714306    4.25426728589656   -0.28515692372737
N         3.75539297922144    3.65533961896611    2.85646100381286
N         4.06042381864720    4.78793365865408    2.87860371277381
N         4.50527024929386    5.83050541651258    2.87659365651141
N         2.84517561395386    1.58372268038544    4.43118243751027
N         3.72408208378073    1.54733483663781    5.20223027439067
N         4.52538977239813    1.39243970165325    5.99179762530359
C         0.54368969662730    4.62899525888133    4.69494858036498
H        -0.17153334501979    4.36042011889902    3.93241031551091
C         0.20540549466881    5.55035715252549    5.66691730201375
H        -0.78574456493473    5.97549216275252    5.67450889067486
C         1.15123969055947    5.92026822731433    6.61012851839729
H         0.91991672612997    6.64164599257605    7.37810138171619
C         2.40483843560673    5.33878715495469    6.52713164060906
H         3.18686546519118    5.58850856239716    7.22545020959912
C         2.66310571599664    4.42357600201956    5.52308084280522
H         3.64408627664143    3.97540810986001    5.45926294611652
C         1.35700918548098    0.72802841366662    1.36243947961383
H         1.62153561471482   -0.19343021306368    0.83052921068638
H         0.72867548749726    1.33796888148279    0.70696788818128
C         0.59864390887224    0.40419043108972    2.64739778983510
H        -0.32311588686364   -0.14673127827727    2.42162783568246
H         1.23217199875417   -0.20908747381538    3.29213437712891

