63
CSD_code = QOGTEN | q = 0 | S = 0 | Stoichiometry = C15H32B10Cl2IrPSe2 | MND = 8
Ir        1.56191861584850    4.40019037315641    4.11805488571100
Se        3.33981491062927    2.98920757054227    3.03285058909922
Se        0.35030862744353    1.65089749992256    1.56341365519084
Cl       -1.36846431638058    4.53014656464560    1.97582149401488
Cl        1.43555482079842    2.57208234782819    5.61872165763926
P        -0.13421989749408    3.29994728775239    2.99236821537751
C         3.11551284234742    3.02067760100717    1.07242312663492
C         1.77745041745099    2.43318932813131    0.42391504897842
C        -1.38841326570648    2.39075834659579    4.03894929283034
H        -0.81179172779715    1.60554670466472    4.53830169400108
C        -1.92221435540111    3.35321101671805    5.09185994665702
H        -2.60215499613730    2.83156361663424    5.76234390559530
H        -2.46202670403902    4.17619177757765    4.62562424576804
H        -1.09986467299094    3.74873848970127    5.68381585095848
C        -2.51834045301882    1.76569277441564    3.23115092712795
H        -3.20054412281872    1.25285163040852    3.90679494447277
H        -2.14147493348478    1.03299101489067    2.51549332816069
H        -3.08278252937018    2.52411254952161    2.69153904400853
C         2.71872894934885    5.72859635811326    5.41895291391263
C         2.86372853883716    6.24740112519247    4.09574443165115
C         1.56435209677459    6.59824815589469    3.62603493900516
C         0.63514631559799    6.42258572822333    4.72166202607308
C         1.34982428121631    5.91251101471245    5.82544578957800
C         3.83866103912841    5.34602379295739    6.32946225756650
H         4.20734290237146    6.22611335148044    6.86050022321004
H         4.66355401511577    4.91345573406437    5.76633983645474
H         3.50458989839041    4.61682096756530    7.06427929002533
C         4.16901401309952    6.50346377301621    3.42044236721036
H         4.68702063243018    7.31069050567935    3.94087241913900
H         4.02678871956173    6.79578002050328    2.38400166811882
H         4.81009396319313    5.62306026825670    3.44795649844317
C         1.24834154020597    7.35440730392547    2.37551932328940
H         1.24060701253272    8.42483524284509    2.59054647817820
H         0.26734842440576    7.08451623003170    1.98895084253287
H         1.98528870780367    7.16599875170663    1.59839087548300
C        -0.77313846720705    6.91987480825004    4.71072681437114
H        -0.77422868794086    8.00449908891118    4.83701796871082
H        -1.35701441975885    6.48198529839461    5.51669613169638
H        -1.26419297336597    6.69593480963362    3.76587254125826
C         0.84685701816387    5.66365337899346    7.20712522895016
H         1.37560524587097    6.30683479239933    7.91163002196092
H         1.02607995251176    4.62877338727104    7.50056479421297
H        -0.21884917126343    5.86475857358156    7.28547313176022
B         2.01673767425097    4.11938848570820    0.35048406732595
H         1.37858614071515    4.76822995562821    1.09503619901924
B         3.74030505568708    4.29571383138147    0.10854843330697
H         4.30692368421478    5.16198532482357    0.66079026643992
B         4.46753870637038    2.68657591225329    0.07505536066786
H         5.49601796706586    2.51635989141753    0.61494830907351
B         3.20179915342431    1.48732771087801    0.27927228285754
H         3.27223918154240    0.55060980143254    0.98084702382126
B         1.33823045703827    3.24637128736250   -1.01706721312995
H         0.18858821392091    3.36168709581352   -1.23343836144448
B         2.61800274033743    4.45200149292096   -1.26366092350056
H         2.40941428857254    5.48713746203804   -1.78053926304304
B         4.15548514530115    3.55527614080519   -1.44663757278887
H         5.03740488102452    3.97476319018090   -2.10017903897789
B         3.81353916349009    1.80223368658477   -1.32927036015827
H         4.44108221961736    0.99478531455715   -1.90597010276874
B         2.06542536822913    1.63313559757521   -1.06141389644170
H         1.37519051323784    0.71067869959585   -1.29961682098111
B         2.65588415196364    2.89848822067983   -2.15194324132131
H         2.46638748710195    2.84743194265226   -3.31029581297021

