77
CSD_code = QOHBOF | q = 0 | S = 0 | Stoichiometry = C40H24N10NiO2 | MND = 6
Ni        3.48472519067960    0.68802603702284    1.12616166210156
N         5.74271698506030    0.29547271849775    1.47007391708721
N         3.91167283478089    2.27989880039557    0.30050179456582
N         1.58977259552754    1.68607490091472    1.36506599818308
N         3.86136699437277    1.54714686402604    3.24915886469131
N         3.00030547024108   -0.91808790104837    1.89124824021743
N         3.78110756938474   -0.58087485792890   -0.58952556605649
C         6.10796235100648   -0.49048307356450    2.47713564903258
H         5.33319986066911   -1.10347440475074    2.91628407676357
C         7.40033343966315   -0.56450785000871    2.96360342830263
H         7.63530842416652   -1.22996349469454    3.77866269717964
C         8.37280015411475    0.23372266074576    2.37856666817709
H         9.39188781962711    0.21828993385232    2.73511575595416
C         8.01147488920717    1.04675130990379    1.32592313649357
H         8.73719201075671    1.68316581905011    0.84598885467005
C         6.68374814584768    1.05016508026440    0.88122395688724
C         6.29775812481070    1.86886605236351   -0.24804049027098
C         5.02271216585826    2.39599135376771   -0.48168535646123
N         5.05158729339094    3.06499904448712   -1.68237502306988
C         4.04467500015687    3.67115551496082   -2.36872368026985
H         3.05887481734831    3.63319076954656   -1.93783045868845
C         4.30298505048653    4.28116385482611   -3.55436826653239
H         3.49947231257635    4.76001340301455   -4.08928743345565
C         5.60957526714422    4.28441922347003   -4.09457636416314
H         5.79672749928940    4.78278063917379   -5.03199874196761
C         6.61487042469905    3.64218300554489   -3.43053212743908
H         7.62333604168349    3.59907179038390   -3.81099314338740
C         6.33625869389941    3.01128243030390   -2.20988619657228
C         7.12771585578682    2.26363293004625   -1.33231817738489
C         8.46365625499763    1.94016043794385   -1.56408103464727
N         9.56258144622350    1.68314478405124   -1.78725838286140
C         3.13649296156527    3.35146853424320    0.55038518538064
O         3.40816649944067    4.51373129640764    0.25661584463986
C         1.85490663535892    2.99115111071162    1.23548197604967
C         0.98213281804439    3.98113185145442    1.66853004033661
H         1.26375122179982    5.01336629683652    1.52891614787211
C        -0.20793207782651    3.60606231068950    2.26498267213415
H        -0.90407615940236    4.34810857785071    2.62651156268470
C        -0.49099950808916    2.25349046938629    2.37863810491250
H        -1.41332450256838    1.91263763162678    2.82222695127960
C         0.43491113147809    1.33343045359041    1.91102291822823
H         0.22467714062127    0.27388976634794    1.97162444666839
C         4.71014847884427    2.56029908230879    3.38385555421085
H         4.97896339167726    3.08764646935188    2.47906096893578
C         5.23781530739491    2.96400420419033    4.59668770848175
H         5.91560241071858    3.80124794029558    4.64130043419560
C         4.87328645870406    2.26704285799162    5.73972655207697
H         5.27116571758427    2.53875580691883    6.70605131109587
C         3.98612718379045    1.21942407680615    5.61735872757894
H         3.68049579140749    0.65206646214499    6.48143787808893
C         3.48282681925135    0.88531038354481    4.35400720326715
C         2.52038447036466   -0.18662501359452    4.21573803981850
C         2.32334765281430   -0.97135062063207    3.07377055426655
N         1.28606265292578   -1.83781291246307    3.32547842506848
C         0.67835685661726   -2.73510377820844    2.50212461201835
H         1.03085864831736   -2.79323508405985    1.48662125256222
C        -0.33920919669629   -3.50371026480141    2.96938528902552
H        -0.81227990142866   -4.21306014168738    2.31052808852953
C        -0.78717358521939   -3.37419474169086    4.30414260259029
H        -1.58882049364590   -4.00114429683968    4.65972895129252
C        -0.21039203555639   -2.44487959435746    5.12127588089645
H        -0.53031663462444   -2.29338707058538    6.14024607164824
C         0.83610654317760   -1.65331629909114    4.62730818310982
C         1.58884218873997   -0.62190303046571    5.19749517312709
C         1.37425964047237   -0.11307086943990    6.47737746564009
N         1.16766171340439    0.28954353718863    7.53509773144351
C         3.41276556715799   -2.05000226302439    1.29043768355783
O         3.37414762357520   -3.17530938238419    1.78351431977121
C         3.93009919078113   -1.81503825811244   -0.09479978370460
C         4.49054381095395   -2.85430171266131   -0.82646227831392
H         4.57778896735745   -3.82373591607186   -0.36078066035721
C         4.91808934875421   -2.60523834460822   -2.11791263855476
H         5.37142579492917   -3.38522332382560   -2.71124724044554
C         4.74048878507015   -1.33199920376166   -2.63744816019877
H         5.04199780484231   -1.09438768272289   -3.64556207470504
C         4.16492207903315   -0.35638983495064   -1.83792693587133
H         3.99824380467185    0.63773274358593   -2.23088699741778

