30
CSD_code = QOHDUO | q = -1 | S = 0 | Stoichiometry = C9H11N5O4V(1-) | MND = 5
V         6.92827238210178    2.82502415540716    7.92553147391858
O         5.42190923761853    3.46837056924354    7.13276490991230
O         1.62572096210598   -0.32062019458272    7.28951998108158
H         1.21267438611875    0.54080200712990    7.41245656028802
O         7.60568516024648    4.16945869579685    8.26474171342726
O         7.71352967921102    2.04298525258613    6.84973526750177
N         7.62211281446149    2.05904498865834    9.57244241172970
H         8.47699115208949    2.34703269471819   10.03876563548907
N         5.92099318754291    0.51651233816396    9.54485295112565
N         5.52093950880097    1.28899217172034    8.51674159549910
N         7.57240233254921    0.30156649646161   11.14939665456352
H         8.58074294983389    0.31612448030814   11.20841589055991
H         7.17738246629738   -0.62208099986634   11.24836092074614
N         3.11161527155075    3.03294788379103    4.46154690586012
C         7.05237365915475    0.98152568247276   10.04792098788620
C         4.55343546820432    2.87886502999521    6.39200236970911
C         4.04783555408346    3.54136981550648    5.23464608281474
C         2.60819992710634    1.83893485906405    4.76702053245700
H         1.83983734006814    1.47828099012966    4.09168299884406
C         3.01989347362770    1.07443545509542    5.84128071530819
C         4.02071463110060    1.59157109958638    6.68949648674906
C         4.51780374227906    0.87206061889310    7.82284320636106
H         4.04700533601554   -0.07306380569365    8.10227213243329
C         2.38152905716303   -0.26662851103206    6.08767903796220
H         1.72430080540933   -0.51166728888593    5.23771006398828
H         3.13692060691292   -1.05353215135295    6.17314517365472
C         4.62872748786932    4.87470611350907    4.87952980597484
H         4.32589525014690    5.15992603963724    3.87537203901924
H         5.71602165612521    4.81734252646634    4.95619104072394
H         4.29183451420335    5.63031298707190    5.59033445440970

