87
CSD_code = QOHHAW | q = 0 | S = 0 | Stoichiometry = C39H42N4NiO | MND = 4
Ni        3.24667767684908    0.54658671836467   -2.39483614614728
O         8.57116587131229   -0.03561557080950   -5.49661396154931
N         3.22691085147840    2.29346828249309   -1.70419977214589
N         1.45091959608367    0.74768076557354   -2.95463586672200
N         3.29106106724567   -1.16560814623380   -3.19742317100486
N         5.05300139814526    0.35743283354625   -1.93882178866933
C         4.02414470048023    2.78058551146928   -0.75270022880542
C         3.73857529968551    4.14420801865183   -0.52953144599303
C         2.76632191062945    4.49997888762198   -1.42867761951201
C         2.42600258369989    3.32921263803414   -2.15217216259404
C         1.36789973092172    3.18330106512784   -3.05248571545707
C         0.88541676251858    1.92319613918887   -3.40725673183231
C        -0.34214496461042    1.61042815255888   -4.04766319572201
C        -0.52338597743339    0.25499772907223   -3.92187422203248
C         0.60085981093700   -0.24162701028324   -3.23327666045417
C         0.91720441784480   -1.65609847528701   -2.81671344658076
C         2.23947518323547   -1.93297067777073   -3.48161594467046
C         2.57696565489459   -2.87515960520625   -4.47557741466636
C         3.89241553187476   -2.65148009236198   -4.80288815490534
C         4.34518253986826   -1.59246799211940   -3.97491360111932
C         5.64539545578091   -1.12257241457669   -3.80033449026576
C         5.98054895658624   -0.33029842719208   -2.69556538532216
C         7.26602636651147   -0.09330330580337   -2.15349548868165
C         7.09156482384795    0.71197755235120   -1.05606477664149
C         5.71499486728217    1.01103329097880   -0.98347911673390
C         5.01902372520263    1.92378830803190   -0.01348923362862
C         0.62746334946472    4.40410689580077   -3.51851058049944
C        -0.52702288637427    4.74352361221881   -2.57125142273089
C         1.13074626620855   -1.66598641242807   -1.28141864707746
C        -0.10844212724372   -1.26822533757362   -0.49191702058476
C        -0.17851968830680   -2.63340703610051   -3.26223893846524
C         0.00038810852367   -4.05412353053388   -2.73370980028921
C         6.68401946938465   -1.38922244773727   -4.85444950032975
C         7.66129378456548   -2.51751800278865   -4.52068274340013
C         7.40913161247154   -0.07235083531452   -5.17474016631045
C         6.56893354454852    1.14321300845548   -5.00154241334434
C         7.15418047792955    2.24845649160093   -4.38927655133751
C         6.38163935714844    3.33197345043290   -4.01371862098985
C         5.01857819054041    3.32790820350799   -4.25321329596694
C         4.43301979114495    2.25394450110512   -4.91066013812568
C         5.20547892923083    1.17437132964964   -5.29948499404217
C         4.17404707867447    1.04339108713514    0.95166603436306
C         4.98165648446807    0.03528209454433    1.75687801098477
C         6.02591968760151    2.78688982177265    0.76445843064710
C         6.84534416740380    3.73341866120230   -0.11035124335994
H         4.17885118103210    4.77996419427178    0.21260094226931
H         2.31894733668210    5.46882116392202   -1.53634814811644
H        -1.01257853320597    2.30491297504441   -4.51507211897848
H        -1.35913422978789   -0.31721469044917   -4.27325612770936
H         1.93208735735380   -3.61927906521154   -4.89922588085658
H         4.48197255885773   -3.20474726682019   -5.50860416418264
H         8.19435893097668   -0.48926477362641   -2.51458013343681
H         7.85728231077856    1.03647671832106   -0.38008205624221
H         0.23090845403493    4.22854493036900   -4.51917949491141
H         1.31143957417068    5.25154090722563   -3.57277084250483
H        -1.23056159238606    3.91636658250207   -2.51955352301384
H        -1.05277716144341    5.62860010473483   -2.92214182517747
H        -0.15233404537498    4.93374815818897   -1.56859568246475
H         1.47716044888069   -2.65306017302356   -0.97271220671380
H         1.93821982995723   -0.94446130151828   -1.06087446767780
H        -0.47334461385799   -0.29766242440157   -0.82103967644410
H         0.13326625248083   -1.20179387988809    0.56686192245329
H        -0.90736982870066   -1.99607450536890   -0.60997172940546
H        -0.19420154976302   -2.65094693439707   -4.35397154328621
H        -1.14509980422423   -2.25410244326677   -2.92761617952989
H         1.01260149899946   -4.41184293926316   -2.90194345981923
H        -0.69027510942146   -4.72513624938496   -3.24046337200624
H        -0.20679554226080   -4.10554955988393   -1.66808470222270
H         6.16869359486205   -1.66168277906038   -5.78411567553015
H         8.08824890521554   -2.38705375888474   -3.53120187702222
H         8.46856405120632   -2.52087808131343   -5.24951970826413
H         7.14858679955972   -3.47593335242410   -4.54791766243199
H         8.21317572927922    2.22476255318903   -4.17897741748372
H         6.84219778832323    4.17475792988729   -3.51986147801445
H         4.41173360576749    4.16343126452330   -3.93772797423334
H         3.37671811693069    2.27016992284779   -5.14146381270352
H         4.74672515398805    0.36119727695795   -5.84176975698265
H         3.61814237703560    1.69849063177165    1.62676722088816
H         3.44787694106414    0.50372652185027    0.32795146749780
H         5.58273949075944   -0.58657737953680    1.09756391973625
H         4.30726228661353   -0.60934507285039    2.31662107635258
H         5.63975694529993    0.52952138947007    2.46698498710068
H         5.48033878037644    3.36484077713344    1.51347895151210
H         6.70892758713715    2.12679271758215    1.29958502736406
H         7.40136078305889    3.18390567569307   -0.86434148705334
H         7.55163399989080    4.28453607543879    0.50777459606276
H         6.21001390156900    4.44707842929814   -0.62603658403179

