57
CSD_code = QOHLOP | q = 0 | S = 0 | Stoichiometry = C22H24CdN4O6 | MND = 6
Cd        9.39673982988222   14.79881697624345    5.09747827429580
N        10.89412776979608   13.21841898982075    5.40686940101348
N         9.36380434005301   13.53616622204589    3.09908539920043
H         8.61619105155683   12.85769285968851    3.22693702247683
N         9.48462059370516   16.36793756732784    3.33124089181159
H        10.22670979489927   17.01498243641606    3.58858340331033
N         7.88719858371799   16.31187671048561    5.61466254909022
O        10.79006463751492   15.79560197702793    6.33380697929329
O        10.05629482206262   17.95954601153529    7.39295821644108
H        10.40263326649155   17.25721124736643    6.76059201513668
O         9.71375753248296   18.02612092942787    9.58498229283140
O         7.97009665304407   13.61840047575019    6.11509330140758
O         8.67832383066079   11.31010079463964    6.83094248785811
H         8.34851749590187   12.10630083275468    6.31085698202187
O         8.95801093325700   10.88912240190410    8.99222959745752
C        10.61763072318649   16.02367227256673    8.69105734471355
C        10.78782077329345   15.46504384801646    9.94763069220700
H        10.57817186660927   16.08942308398649   10.80374837460273
C        11.21301529116131   14.15490705493916   10.10424189221024
H        11.35915379089095   13.74281208493256   11.08976057447817
C        11.41137478104991   13.37468382443191    8.98769674691709
H        11.68832532702120   12.33615452161443    9.09946702603324
C        11.21044415902414   13.87855381217669    7.69625623231510
C        10.85949892979607   15.25431761807505    7.51583567347546
C        10.09985147774571   17.41745254731895    8.61584787138307
C        11.29213960428731   12.96226467232742    6.59715873661609
H        11.68755437609371   11.96848018578444    6.84019812753848
C        10.92474058528990   12.18154441065742    4.40419287055437
H        10.15974823147268   11.42739696946943    4.63661761459158
H        11.89973700163770   11.67835508286505    4.37830311873245
C        10.63231970621281   12.81423187498465    3.04167421754429
H        11.42663524078333   13.52989905667401    2.81443767576398
H        10.62556416618376   12.03682859672169    2.26233958496064
C         9.08643294354962   14.37134312585559    1.93817035043680
H         8.00791684738910   14.53620803820528    1.88512907683212
H         9.40472506300207   13.88995260122528    1.00093622205892
C         9.79723489744143   15.73066614599210    2.05909229885357
H        10.87721400380382   15.57403547141520    2.01111147295406
H         9.50489049262822   16.35791384577826    1.20320796491059
C         8.21666775867402   17.09276003180585    3.35469320492032
H         7.43089070715264   16.42525302638153    2.99174303075947
H         8.24424859246163   17.98599616929901    2.71194985375757
C         7.88345115175436   17.49742485435657    4.79255656208306
H         8.63975933851302   18.20204819865754    5.16603426629367
H         6.90853081522681   18.00067575313694    4.82017055613139
C         7.45440533318268   16.37310881644436    6.81872288870827
H         7.04980759627991   17.31543335882361    7.20775239470066
C         7.50618897951383   15.29085241275996    7.75698108755018
C         7.26691113860307   15.57966225228405    9.10659115056463
H         6.98444108673373   16.58709336502078    9.37683965770324
C         7.43488779951161   14.62866342577961   10.08748515696661
H         7.25947618378938   14.87626325460716   11.12206327459495
C         7.86751056578389   13.36011840061914    9.73334468248092
H         8.05416054511593   12.60509260435959   10.48290700533815
C         8.07520316338250   13.01172110215822    8.40840253043081
C         7.86541016930819   13.96156229631719    7.36661032948524
C         8.59861766044007   11.64743349873947    8.12362179320095

