61
CSD_code = QOHLOO | q = 0 | S = 0 | Stoichiometry = C23H31MoNO5 | MND = 6
Mo        4.33318759654122    0.30770751825931    3.92509273867464
O         5.22958294576619    1.69073762578882    3.87406807931155
O         2.95056761735206    0.33573716951209    4.82846423327280
O         5.32104538380715   -0.74430829622639    5.02344120524217
O         3.43766142151894    0.43043799348976    2.27932092841029
O         3.20445989624412   -2.10041959863960    3.68669852096787
N         5.66009283304982   -0.78687129267256    2.47253224422772
C         3.98809826208279    0.11217854007277    1.12942296168570
C         5.20866582711807   -0.60503841188324    1.17248774661813
C         5.79907693664550   -1.03892677181776   -0.01445132564182
C         5.20499837618596   -0.74049446987663   -1.22492900364175
C         4.02278294044205   -0.01108493609443   -1.26980189311265
C         3.41081094663597    0.41393347094156   -0.10765421581640
C         6.56485553688105   -1.12119766018831    5.20051588874623
C         7.14367899430463   -1.20130995025688    6.48754986629346
C         8.44314355627810   -1.66512864507626    6.58888837334821
C         9.21670747128152   -2.05042440008937    5.48744014522508
C         8.65428953218582   -1.92882435416532    4.23527568908414
C         7.34408665706286   -1.45731491604650    4.06450003812718
C         6.81743929749590   -1.29724544408169    2.74826094365356
C         6.33740859223781   -0.73642630237509    7.69478078591808
C         6.02332218309126    0.75914755938498    7.52427305621902
C         7.10193262772841   -0.91595853888447    9.01159258084386
C         5.02936574600792   -1.53578381178944    7.79180413281285
C        10.64020792513461   -2.57240427558534    5.62890588529539
C        10.71697339180004   -3.98082710537009    5.02266041986673
C        11.59359224510105   -1.63021259425942    4.88074803594108
C        11.10082842324743   -2.65740005492620    7.08646860155196
C         2.23978016867081   -2.40282217005930    2.68620917249344
C         1.09379767489341   -3.22921230208613    3.25581420301192
H         6.71623233270008   -1.60907412430294   -0.00221052173543
H         5.66585284025963   -1.07467785378195   -2.14172989496026
H         3.57372090448693    0.21927153104987   -2.22409283514316
H         2.48850268712089    0.97475199967676   -0.12789317109585
H         8.88366321095078   -1.73160499118022    7.56671291662972
H         9.21727383117120   -2.18428843211500    3.34981375874543
H         5.41845450733319    0.94785037115439    6.63087600194022
H         6.94670432355135    1.32964881035770    7.44265908454148
H         5.47018626960147    1.11846756827307    8.38927397743625
H         6.48062869001462   -0.56977541414055    9.83432814123236
H         8.01822672871827   -0.33071446177219    9.01971662209708
H         7.34041766805801   -1.96221097201661    9.18946528842281
H         4.37311385452999   -1.31330813046469    6.95043858093538
H         4.50604362594313   -1.27270743070349    8.70837150086625
H         5.23798742565097   -2.60420386955114    7.80629189159695
H        10.46595723168732   -3.97262926508294    3.96598543975617
H        10.02486884322858   -4.64737659836214    5.53245804824227
H        11.72307490777596   -4.38013265826172    5.12979003707715
H        11.35985519663781   -1.58864576884361    3.82087855840186
H        12.62031047419132   -1.97262635813428    4.98967961934204
H        11.52024362727686   -0.62324349258985    5.28509491252239
H        11.10810436060778   -1.67593968832792    7.55411234484812
H        12.11484028972877   -3.05029874687232    7.12083452757986
H        10.46405948801108   -3.32558854669734    7.66122095224529
H         1.84794083540541   -1.47633470563140    2.24411527474172
H         2.77409096017583   -2.96543828864813    1.91421225903296
H         0.39538742627738   -3.49126895672632    2.46605947118769
H         0.56369256389284   -2.65875790939329    4.01537183626832
H         1.47561551787115   -4.14191761101770    3.70651593805458
H         2.73975969805052   -1.60588984335393    4.38694620552975
H         7.47874867228992   -1.60737973754194    1.93522319503063

