87
CSD_code = QOHSOV | q = 1 | S = 0 | Stoichiometry = C42H36Cl2N4P2Re(1+) | MND = 6
Re       25.72151271854992    6.20457584651686   15.23915641214920
Cl       26.08698427527954    3.96167129734778   15.41619815633077
Cl       27.65969383606829    6.94671986094398   14.29090048775367
P        25.02272534620044    6.05854181837002   12.91413966849055
P        26.63205395489144    6.27209422995581   17.49406058222071
N        23.34591586762303    9.60705474005704   15.90276198795043
H        22.46802280117386    9.98467159339131   16.21889597214908
C        23.70624943842597    8.29956099562633   15.85914401833548
N        24.95147639566219    8.18654271050195   15.37573349162982
C        25.38317198840591    9.44472672762792   15.10402776749109
H        26.35233990051421    9.62679291603528   14.68650165215042
C        24.40005776666546   10.33320861446640   15.42649247973294
H        24.37200269130081   11.39995618445918   15.35580758700437
N        21.83427855443849    6.79045204814833   16.72014283433431
H        21.10306728975873    7.43792422781164   16.96298111111334
C        23.05443604864120    7.08874475896115   16.20656481455893
N        23.75799831935341    5.96336075509628   16.02089454272336
C        22.97047699531567    4.93585177834019   16.43013570085204
H        23.31251736146474    3.92142518656431   16.39978440428493
C        21.77787775709000    5.43367325950442   16.86525044535149
H        20.91516935966202    4.93673016495639   17.25566033119442
C        26.12670207431987    5.23234139121072   11.73121944293123
C        25.86110466122584    5.37132746077707   10.36982179385542
H        25.03307644757343    5.98472660260301   10.04189080674680
C        26.66096541790156    4.73093874672127    9.44405440424361
H        26.45728287358061    4.84389760278359    8.38989300432552
C        27.72158078571479    3.94381838324363    9.86711805658862
H        28.34517423492739    3.44581431510926    9.14050506769909
C        27.97844137828947    3.79429071586630   11.21890704102817
H        28.80036292768345    3.17779281913912   11.54956075140629
C        27.18227222262356    4.43410938973805   12.15309445554965
H        27.38317167650458    4.31044783514071   13.20743279639196
C        24.83852017994485    7.73903821310032   12.25656772800809
C        25.90205349685825    8.36789101634784   11.61637551788970
H        26.81406170998710    7.81953312573840   11.42859409991672
C        25.78878169707158    9.68923046312635   11.22220010752180
H        26.61391839591490   10.17075419384640   10.71998201655844
C        24.62173471895473   10.39305860797107   11.46945449127604
H        24.53334281617404   11.42124480258724   11.15359030235111
C        23.56637632432213    9.77705015189007   12.12395673344958
H        22.65593145722386   10.32612136311052   12.31650124402064
C        23.67614771976347    8.45916115681700   12.52593628634463
H        22.85745749557424    7.97464726077706   13.04423284723973
C        23.45305294704145    5.21661545625715   12.55166666648158
C        22.55680260308666    5.64502798448292   11.57827518015987
H        22.74506640949206    6.55051858736386   11.01921503647170
C        21.41612553473131    4.90489406730691   11.32205857530728
H        20.72325298820188    5.23829689784928   10.56399281818429
C        21.16600498169508    3.73756123960473   12.02499947322483
H        20.27490723017635    3.16500348450827   11.81782262157453
C        22.06584108105430    3.29946300839382   12.98343739543541
H        21.88037822261862    2.38222537301298   13.52159244174423
C        23.20778213953130    4.03357994963906   13.24328178916103
H        23.92986285817121    3.69151944975648   13.97221830953347
C        27.11068109095072    7.88878444819195   18.17522377555597
C        27.75606460409699    8.77332468421654   17.31596232591045
H        27.91518131984929    8.48661989413963   16.28568111698184
C        28.20628015631213    9.99400992739138   17.78333514769460
H        28.70681656203502   10.67590295797778   17.11258539090789
C        28.02393374877626   10.33505136410012   19.11364117082242
H        28.37697658164210   11.28619367838327   19.48181294476145
C        27.39910580679227    9.44879585224610   19.97607467573627
H        27.27056665581969    9.70730820451561   21.01647552122765
C        26.94475766073365    8.22634921697088   19.51452397962308
H        26.46420018931341    7.54025592831742   20.19728715222048
C        28.12853126435775    5.30680121058340   17.85017366771015
C        28.46601249800210    5.05380377955853   19.17848131779744
H        27.81870602108620    5.39444281531281   19.97482596019267
C        29.62315261153704    4.35995504965331   19.47359569882559
H        29.88000838707818    4.15892575571739   20.50276560587275
C        30.45291008477771    3.92402761013232   18.45147393864914
H        31.35546849961620    3.38088355849357   18.68660555430868
C        30.12647302958297    4.18775011432905   17.13232791876066
H        30.77494128116145    3.85394334904241   16.33669031326233
C        28.96798328986313    4.88125380625584   16.82801365662584
H        28.71794625792563    5.09154489701174   15.79784673435856
C        25.38321956285036    5.61734882776027   18.63487146043906
C        24.35571674317741    6.44580326272739   19.08221467389881
H        24.37132986232641    7.49876845593876   18.82830252581793
C        23.33338162303952    5.92810343856762   19.85533065434770
H        22.54871509882772    6.57713836347992   20.21711824176036
C        23.31880308313934    4.57913336366913   20.17437377438046
H        22.52398387116757    4.17838068379113   20.78468788899913
C        24.32395198630433    3.74674493610248   19.71025530136160
H        24.30953003163856    2.69508883960618   19.95264061173994
C        25.35007725934954    4.25930721386415   18.93671071125159
H        26.13092690241133    3.61033368130190   18.56630683773516

