243
CSD_code = QOHWEP | q = 0 | S = 0 | Stoichiometry = C96H138N4O2P2Ti | MND = 6
Ti       -0.83075769835251   -0.00004982704047    7.68467012897650
O         0.58041369852461    0.27553507512057    6.19839267761380
N        -1.07102210124142    2.02065614062212    7.77508717593553
C        -1.81070386496526    2.79812564740482    6.92256145584584
C        -1.71525234534327    4.15246047966982    7.28741065343759
H        -2.20448247910903    4.97695126807840    6.80497965449373
C        -0.89111591827184    4.20717876465561    8.39373142978697
H        -0.58269894987344    5.08699718758910    8.92514285718905
C        -0.50576494233225    2.88454596507238    8.67586668334240
C         0.40897756486295    2.50919072445315    9.70085547136570
C         0.86546473667076    1.22217666404690    9.89139339278355
C         1.74154765822636    0.84516526304355   10.97714077149672
H         2.16314128488991    1.52442917329649   11.69187047123230
C         1.88216497101579   -0.49258516373770   10.93038361615508
H         2.43548758708832   -1.12168931045877   11.60179069433487
C         1.10498376766261   -0.96590373003841    9.80834625795647
C        -2.61647041761457    2.30147761517800    5.86018693778897
N         0.50442364266127    0.10155215725550    9.16789958741635
C         0.87243754263696    3.58247501647380   10.59926129950528
C        -0.04763258253702    4.34416211632442   11.32021637180206
H        -1.10155167224559    4.12354633344633   11.22647007644757
C         0.37095973799718    5.35789259841868   12.15807235525596
H        -0.36060811988741    5.93047630348032   12.71120715569391
C         1.72197845941738    5.65128404711624   12.30752431777256
C         2.64039536774047    4.89681986099618   11.58972010091607
H         3.69629951719852    5.10936173746322   11.68713393509572
C         2.22543634033984    3.88053332421617   10.74933750166396
H         2.96104611239445    3.31415913181375   10.19464939395061
C         2.17005746190888    6.73315248719236   13.24295920102870
H         1.48892162517325    7.58121659158219   13.20887580477918
H         3.17167940004192    7.07495586907326   12.99233647024297
H         2.18532658085574    6.35701842246156   14.26691549192987
C        -3.32703077862713    3.30744178205174    5.04637184690750
C        -2.61766752722881    4.28364449885067    4.35031002172693
H        -1.53730143860933    4.27420887424966    4.38512484017873
C        -3.27569486578702    5.25115517750245    3.61633079223448
H        -2.70369513830199    5.99861943726940    3.08364639406234
C        -4.66355601907888    5.28008835643490    3.55328508994623
C        -5.37293448604428    4.30244172110088    4.23930935501369
H        -6.45384755753408    4.30645714624323    4.20378332907177
C        -4.71815128749302    3.33146726221342    4.97266297973176
H        -5.29246194180774    2.58501152840718    5.50456078555464
C        -5.37790444924352    6.32256687720295    2.74662405582525
H        -4.77661458544867    7.22467251960304    2.65795350712498
H        -5.57493633740946    5.94815945358966    1.74100075195157
H        -6.33256503655467    6.57810507335738    3.20184338083184
P         2.05778233124728    0.45807602735614    6.03674094427630
C         2.99880555865120   -0.97708687170732    6.69420227421450
H         4.07129238689774   -0.81134551221633    6.57963287075102
H         2.76087497531481   -1.04573703046449    7.76092599020614
C         2.55312334711951   -2.25233420986908    5.98375439238136
H         1.46195327247986   -2.30953540608967    6.03495614664630
H         2.83764400680117   -2.21487463990637    4.92859572344592
C         3.15185873611511   -3.50453726812214    6.62047969314506
H         2.86359624392247   -3.53848374634057    7.67173156869909
H         4.24339319791007   -3.46094415215454    6.57128063663408
C         2.65177483172665   -4.77465135296330    5.93726463860821
H         1.56169350357744   -4.73808761062581    5.89918532175858
H         3.02382050169262   -4.81798620670559    4.91044499389994
C         3.07171520265025   -6.03408076379368    6.69062905331525
H         2.76787481039556   -5.93849903725077    7.73557507800126
H         4.16006420205112   -6.13194273825149    6.67314936542960
C         2.43325573807557   -7.28644617802092    6.09545788227194
H         2.76538888522728   -7.40772066838706    5.06135328648515
H         1.34853717184628   -7.15797873812728    6.08108340855342
C         2.77661936604698   -8.54559739796084    6.88703455940482
H         3.86175585247110   -8.66882335628855    6.92042656675315
H         2.42698825731003   -8.42793873511124    7.91541746360019
C         2.14362476887352   -9.78887840068626    6.27382974059960
H         2.37859254522055  -10.67238539670916    6.86330998868301
H         2.51177787650961   -9.94425849623785    5.26182598841099
H         1.06197223971130   -9.68226660404371    6.22931676535293
C         2.49988917844425    0.66417143535024    4.25203400518372
H         3.17299525877006    1.51969444706109    4.17701321060329
H         3.05321272144390   -0.21262437322222    3.91327139493603
C         1.26063582259191    0.86838077203897    3.38299456179031
H         0.55780566542991    1.52785658341170    3.89821059364392
H         1.55356647545572    1.34861429624825    2.44499034432481
C         0.56163580529607   -0.45242610873821    3.07418502896279
H         1.27668009672904   -1.14135315297715    2.61441547565616
H         0.21074532414570   -0.89680146884755    4.00916352848780
C        -0.62303391355840   -0.26213060086024    2.13008114780156
H        -0.29163889911365    0.25741592960239    1.22645786339144
H        -1.37317292192418    0.36189168286059    2.61961705372144
C        -1.25172355911645   -1.59840640099478    1.74631983890453
H        -0.51064759073547   -2.21771532692739    1.23394153987884
H        -1.54654684170058   -2.12298624471450    2.65581967518403
C        -2.47504032801911   -1.43126328161510    0.84986373824563
H        -2.18024987525691   -0.96023669166455   -0.09148761418106
H        -3.18843363331647   -0.76668355378357    1.34162830010126
C        -3.15012069584104   -2.76977484189122    0.56034617066849
H        -3.42178562931222   -3.24486181800725    1.50535833313437
H        -2.44075545173870   -3.42986562834550    0.05526535861027
C        -4.39536362434762   -2.60637143777452   -0.30224966320190
H        -4.86326580594182   -3.57050551336034   -0.48891249220139
H        -4.14217741679746   -2.15624563632352   -1.26005783479553
H        -5.11947968573749   -1.96470751380415    0.19517670994559
C         2.65427637906341    1.97024523054831    6.89339507290824
H         2.37959573951588    1.87104237289954    7.94823939187602
H         3.74029740140450    2.04484847281195    6.81457269436978
C         1.96922899590762    3.19661809685273    6.29461767476095
H         2.27285719348807    3.32730743855347    5.25219993995684
H         0.88881708006073    3.02797476917319    6.31104416905676
C         2.29051036541221    4.47031574820435    7.07319245799131
H         3.36807663753448    4.65507563239950    7.05355415619190
H         1.99268862302593    4.33293741820658    8.11295828700806
C         1.54704913804198    5.67852972937854    6.50953423217473
H         0.48897594564686    5.42438697671976    6.42662310813978
H         1.91660283350124    5.91099769259211    5.50757136506157
C         1.68829568573789    6.90460985413386    7.40797856934148
H         1.39420830768210    6.63417040766964    8.42491818324798
H         2.73413111797079    7.21976719160998    7.44294987908865
C         0.81907915663246    8.06316656529941    6.92591127465051
H         1.13563983225286    8.36290850320044    5.92377665233014
H        -0.21731871950318    7.72457951133232    6.85726041402982
C         0.89067338562400    9.26850365844115    7.85977909751989
H         0.55320498234734    8.97009777765145    8.85518357200264
H         1.92901825841940    9.59661945877659    7.94923430645673
C         0.03491855847909   10.42525907447738    7.35777238367524
H         0.07958083253822   11.26544557438930    8.04719601189254
H        -1.00334488856452   10.11605546715115    7.25898504902622
H         0.38339300339213   10.76219686716568    6.38368575128820
O        -2.24199161780087   -0.27559590260690    9.17089711298533
P        -3.71939035513832   -0.45803762589503    9.33240105753610
C        -4.66026544599852    0.97717493046313    8.67483039533393
H        -5.73277256617925    0.81151280150143    8.78932665281169
H        -4.42225575666663    1.04581431428635    7.60812503292720
C        -4.21452524901527    2.25237346521563    9.38533048071382
H        -3.12334714189854    2.30948697355829    9.33419592664505
H        -4.49910844154871    2.21490534528096   10.44047130199239
C        -4.81311600063530    3.50466505116969    8.74864494115140
H        -4.52476429655992    3.53867082621903    7.69741986015923
H        -5.90465860280120    3.46116312671133    8.79775606054567
C        -4.31296395298747    4.77466842444576    9.43201620279021
H        -3.22288478814309    4.73803875876446    9.47009516508200
H        -4.68501043388649    4.81787709899898   10.45884086817442
C        -4.73282521152289    6.03423774655288    8.67884442376568
H        -4.42898003785986    5.93880966225508    7.63388639822422
H        -5.82116838515792    6.13215685506477    8.69633504304561
C        -4.09430764632072    7.28646692421751    9.27424017726374
H        -4.42635976935660    7.40751469035570   10.30839773838490
H        -3.00959047207468    7.15797792811057    9.28850348162577
C        -4.43772167544025    8.54580038368086    8.48297497799359
H        -5.52285974321479    8.66905592296315    8.44971788585977
H        -4.08819076736969    8.42836921725924    7.45453206135007
C        -3.80463619618774    9.78892652358901    9.09640032042465
H        -4.03973619634654   10.67258704461051    8.50720312055515
H        -4.17260768481964    9.94402322608350   10.10851474991965
H        -2.72297022077536    9.68233290655614    9.14068799631455
C        -4.16169863842670   -0.66403426142759   11.11707070567546
H        -4.83487573627134   -1.51950524574849   11.19205271140447
H        -4.71499241551459    0.21281160654711   11.45575168556243
C        -2.92254578775151   -0.86830361213365   11.98623728697968
H        -2.21972091474330   -1.52786304857306   11.47112168846525
H        -3.21560536590537   -1.34846603162300   12.92423761869913
C        -2.22346545079948    0.45245998007307   12.29504744730479
H        -2.93847596434085    1.14144216942897   12.75478680318369
H        -1.87251592517787    0.89679747826169   11.36007342347646
C        -1.03883611680696    0.26209051761973   13.23918564688901
H        -1.37028481975095   -0.25746758304137   14.14278298824471
H        -0.28870636524793   -0.36194954029893   12.74965786818940
C        -0.41010143020959    1.59832618936409   13.62301076556351
H        -1.15117920325571    2.21766318531321   14.13535245755623
H        -0.11518653560810    2.12291054251976   12.71354314281662
C         0.81313847090469    1.43108774312975   14.51955269530265
H         0.51825189827516    0.96002052082857   15.46085379839642
H         1.52654468825585    0.76650600742724   14.02780957465509
C         1.48824944358303    2.76955359344840   14.80920572884694
H         1.76005479150051    3.24466624495875   13.86424672276186
H         0.77885457554971    3.42965805538224   15.31422706213499
C         2.73337467220106    2.60604615318715   15.67195069622785
H         3.20129969122877    3.57014728790763   15.85872517792277
H         2.48004088975227    2.15588291343786   16.62970222440092
H         3.45752305447931    1.96437157861713   15.17458567017118
C        -4.31585867801956   -1.97024870463828    8.47580082932409
H        -4.04116913028726   -1.87111930218755    7.42095328394321
H        -5.40187690477858   -2.04488436396080    8.55462212526012
C        -3.63074893066252   -3.19652351253065    9.07470794569148
H        -3.93441829563838   -3.32714695306455   10.11712229972344
H        -2.55034944465301   -3.02777972588805    9.05832096767786
C        -3.95184607109837   -4.47033693686223    8.29624768356887
H        -5.02939126213383   -4.65522172578248    8.31583040438007
H        -3.65396147297838   -4.33305125934319    7.25648864414313
C        -3.20826182363025   -5.67837346980005    8.86012556999504
H        -2.15024289352736   -5.42403682890659    8.94315897609777
H        -3.57791618479213   -5.91080072971061    9.86206036176521
C        -3.34913774471167   -6.90458879312162    7.96180983679070
H        -3.05496462521280   -6.63420351193379    6.94488224319478
H        -4.39489802104577   -7.21998127165567    7.92672693920343
C        -2.47972007838770   -8.06288321242962    8.44414094690214
H        -2.79644097170779   -8.36266151780998    9.44621398168774
H        -1.44343716107153   -7.72399065200468    8.51302964564222
C        -2.55071517116108   -9.26828636474447    7.51031080830459
H        -2.21308303981259   -8.96983010122269    6.51497637943354
H        -3.58893177188512   -9.59673905434581    7.42060481195219
C        -1.69473117822125  -10.42474940017843    8.01259450194579
H        -1.73882112496217  -11.26493396711343    7.32312770595346
H        -0.65662156949630  -10.11515110477806    8.11177166653116
H        -2.04343896962718  -10.76184156131668    8.98654455573036
C         0.95521322103760   -2.30156317849434    9.50898360510183
C         0.14940164949064   -2.79821808587406    8.44664622575279
N        -0.59041961409331   -2.02075344888631    7.59423419189130
N        -2.16594257532131   -0.10165385130986    6.20145820269668
C        -2.52705092679798   -1.22229324203635    5.47802222026223
C        -2.07053211477733   -2.50929824401278    5.66854388338626
C        -1.15570574344343   -2.88463642273265    6.69346529317890
C        -0.77024955297750   -4.20725852154137    6.97550707726121
C         0.05399741588052   -4.15254095323915    8.08174264365817
H         0.54332468747829   -4.97702808568913    8.56407823380504
H        -1.07866092956805   -5.08707525479009    6.44409072616316
C        -2.53396419634824   -3.58259359843252    4.77013407511027
C        -1.61386110296233   -4.34419421303236    4.04912847784821
H        -0.55995732308279   -4.12348346260974    4.14282480753956
C        -2.03240071110016   -5.35796558600990    3.21129635399450
H        -1.30080657784956   -5.93048518297918    2.65813001341521
C        -3.38339946686509   -5.65148414694534    3.06191716544790
C        -4.30185023305406   -4.89709046831304    3.77975272562002
H        -5.35773986101120   -5.10972640159124    3.68238698164003
C        -3.88694376087630   -3.88076164548691    4.62011153276553
H        -4.62257915140341   -3.31444803064273    5.17482741660066
C        -3.83142525677229   -6.73341228760839    2.12652595310773
H        -3.15014077846829   -7.58136100145187    2.16050112590253
H        -4.83295465945036   -7.07538947501028    2.37728168047149
H        -3.84690121088841   -6.35726338049626    1.10257818198377
C        -3.40315721007791   -0.84529045451067    4.39229060945566
H        -3.82483896846987   -1.52457439242184    3.67763161257502
C        -3.54365266045059    0.49247721577399    4.43894946907812
H        -4.09695023836746    1.12157681599498    3.76751752165847
C        -2.76640259451868    0.96581267190910    5.56093258323161
C         1.66608209294837   -3.30748560954547   10.32257855669297
C         0.95706300656654   -4.28399104546340   11.01856544394845
H        -0.12331044530072   -4.27481190942391   10.98392438717199
C         1.61543925224738   -5.25148370423022   11.75225907574710
H         1.04370138242429   -5.99919224181266   12.28488244603773
C         3.00331614033326   -5.28009302601704   11.81509069865039
C         3.71235248340968   -4.30212370509427   11.12917113805811
H         4.79327136794270   -4.30587087017199   11.16454810025819
C         3.05722135221288   -3.33116981648763   10.39610505905383
H         3.63126989473148   -2.58445580157811    9.86428635586352
C         3.71805003502901   -6.32256599108096   12.62141724760077
H         3.11695779788258   -7.22480424590667   12.71007508119618
H         3.91524342392159   -5.94828753394571   13.62705675931505
H         4.67265568236285   -6.57784141948659   12.16593409279790

