103
CSD_code = QOHXAO | q = 0 | S = 0 | Stoichiometry = C51H40ClN3O5P2Pd | MND = 4
C        12.06803972385171    9.76396384855897   -2.10864249363613
C        13.36357166619677    9.03861772347871   -2.04669881935546
C        13.81636554606073    8.38041893812376   -0.90505743892414
H        13.20623579014985    8.36553619656511   -0.01711801473470
C        15.04047330727105    7.74382885041426   -0.91797030954139
H        15.41412187940033    7.22804465038730   -0.04641043730414
C        15.81388093962047    7.76772429031984   -2.07347277247360
C        15.36393018742174    8.40336871105997   -3.22621525497539
H        15.98127633846786    8.39209860537397   -4.11134513074020
C        14.13610405970197    9.02740243160142   -3.20867452976243
H        13.74930858830350    9.52010075648845   -4.08689893673452
C        11.37922818704174   10.86812320549570    1.11667492928543
H        10.41907315450352   11.38755143862864    0.88663793985833
C        11.81875092222754   10.87250669655206    2.48624908527605
C        11.00983960243299   11.45462115174641    3.46338435355304
H        10.06823435586018   11.89499028770093    3.17049479977274
C        11.37785782061426   11.47848932636277    4.80277445554934
H        10.75229227944113   11.92723654971456    5.55577743152874
C        12.58255769072790   10.90286158169078    5.13143147734184
C        13.40230712176005   10.31645331081425    4.15970527248625
C        13.04921147201103   10.28584346274197    2.83887562591214
H        13.67673510661177    9.84238848417841    2.08568966830680
C        14.40193770685371   10.12165686422949    6.13365978473987
H        14.42025188813580    9.18735749704289    6.71710539367568
H        15.23752526647458   10.76451564538790    6.45366753336293
C         7.59178436779014    8.94119902001951   -2.26734110933996
C         8.11823324747892    9.15708253161981   -3.54069653777053
H         9.09768676557112    9.62723932145169   -3.64414353161270
C         7.39452018852732    8.78537942371225   -4.65748041184357
H         7.79933485717748    8.95432122341836   -5.64446447365311
C         6.14264188293173    8.20865877749389   -4.50942469363194
H         5.57155878924072    7.92745958649937   -5.38207454274451
C         5.61533089964413    8.00449249276015   -3.24529027165715
H         4.63445983620588    7.56578242180240   -3.13341748020247
C         6.33485838721676    8.36979157980434   -2.12055615854674
H         5.91267095761529    8.22646692971183   -1.13611036604009
C         7.51807243643942    9.71590669200007    0.53096231021017
C         7.21932440761342   11.01361094395533    0.93243317012362
H         7.64099104327678   11.84644641766511    0.37839508480007
C         6.37238747785678   11.22928638394086    2.00469301445772
H         6.13693247067732   12.23718732676975    2.31314849016710
C         5.82421530551439   10.15091161861672    2.67961333592197
H         5.16238818103864   10.31716583782336    3.51675057442512
C         6.12283093874819    8.85605025931698    2.28398688515230
H         5.69417885208130    8.01718201841466    2.81286428299497
C         6.96911313691287    8.63346680942430    1.21340743946764
H         7.21545601660207    7.62413876038820    0.91131256579109
C         9.62318860282554    8.03942451235094   -0.44645981953142
C        10.08445464822468    7.88346012983070    0.85851525364606
H         9.74211549856964    8.55576137901189    1.63474356505421
C        10.98045334127112    6.87562462370263    1.16225444042296
H        11.33379190006400    6.76210446994408    2.17676403269089
C        11.43330854378324    6.02436337274323    0.16676748977932
H        12.14022525849668    5.24334811313972    0.40371201360917
C        10.98569192292679    6.18227289322816   -1.13475531654728
H        11.34362606400193    5.52476692980103   -1.91316732015218
C        10.08830049162909    7.18795781355624   -1.44420658739255
H         9.74898356075922    7.31976289578648   -2.46279737954212
C        11.08434350631130   14.37662930046949   -1.22009022579619
C        11.98719390785027   15.43094718975682   -1.32102817612648
H        12.73408482814832   15.42619051266851   -2.10388380170284
C        11.93088149330532   16.47105621629978   -0.41150158636674
H        12.62878779689121   17.29188899517301   -0.49037610456391
C        10.98370484682183   16.46170530927380    0.60087345970412
H        10.94626295444261   17.27681071705397    1.30841086189325
C        10.08921834933903   15.40930337789102    0.70920235334039
H         9.35468654746351   15.40370790348024    1.50103701578342
C        10.13994144657914   14.36726972448380   -0.19872655228308
H         9.43696404611356   13.53640506071868   -0.13855452675608
C        10.49202903469887   13.58533542936536   -3.95965446917478
C        10.11345161457612   12.60116513467692   -4.87178684464980
H        10.21559584081617   11.55544299939578   -4.59228548823673
C         9.61089345471553   12.96317729299360   -6.10614699275320
H         9.31305928510287   12.20359916228239   -6.81404473575851
C         9.47533136923651   14.30481608152592   -6.42964382515657
H         9.07322852076517   14.58958400970966   -7.39094015688415
C         9.84036919104858   15.28165804841849   -5.51872394672444
H         9.72155992451838   16.32576083838658   -5.76958703321060
C        10.34779990943076   14.92798317478820   -4.27992558649461
H        10.61445877917702   15.69115563935325   -3.56245689155148
C        12.87966367287543   12.70865437510115   -2.63434988975201
C        13.68314854673828   12.52870833360704   -1.51004873504925
H        13.25142010864701   12.63652868013208   -0.52211202693908
C        15.02004891770815   12.21284956966840   -1.65275204630104
H        15.63445449214276   12.06756525203791   -0.77654162382359
C        15.56785057124840   12.07665003416373   -2.91867678552434
H        16.61170404859885   11.82436382353588   -3.03089807349249
C        14.77516344930582   12.26251437192738   -4.03881325540251
H        15.20297162381675   12.16026739727859   -5.02548040774685
C        13.43260074143273   12.57012721637071   -3.90144715971447
H        12.81085604484498   12.70022816798062   -4.77619743180707
N        11.52229477757786   10.32120496124862   -1.03210546987377
N        12.03463842248360   10.28296260870774    0.18414039152501
N        17.09682639384733    7.11767056224635   -2.07962331161312
O        11.47797525788362    9.90437441523643   -3.19296674156106
O        13.17904487608966   10.79235317108449    6.35555939455625
O        14.53043013976754    9.82554077443423    4.76052463453235
O        17.42571433930242    6.50438863815495   -1.08483255909587
O        17.77846104179120    7.22163054694964   -3.07887602870526
P         8.62853327118983    9.49965520712545   -0.88556569895329
P        11.09934468676794   12.97028934679249   -2.36706107419272
Cl        7.96210352625846   12.28981618579156   -2.32189696288305
Pd        9.86678352043750   11.23329022784482   -1.61930744541877

