93
CSD_code = QOHZOC | q = 0 | S = 0 | Stoichiometry = C44H43FeNO2P2 | MND = 8
Fe        2.08520451565025    1.27420591843503   10.66506575699424
P         0.43830309653176    2.57706710832067   10.31006630270121
P         3.35927929193249    2.80651830131990    9.86522418032923
O         0.63548068707155   -1.55960645070897    1.91857153088703
O        -0.99999339857234   -2.62649029015492    2.82803537520704
N        -0.04480259655028   -1.86724828776826    2.88530528303931
C         2.80775661746594    0.85429943203010   12.61955854970939
C         3.56083432519612    0.11880520236952   11.64176605921982
C         2.67115505435540   -0.74325659186301   10.95532969989364
C         1.35729280302197   -0.50317295037195   11.45695834959672
C         1.45661630770162    0.44218960515143   12.52625337410138
C         3.41558954732247    1.67518680776652   13.71345082173080
H         4.05693220480792    2.46068274037733   13.31457386987689
H         4.02836049329805    1.03986881448489   14.35542876732848
H         2.64535321091267    2.13313844579245   14.32879209104181
C         5.05225410290061    0.10571905044696   11.55139663407365
H         5.46916493536520    1.01968540995515   11.96658444998642
H         5.38618845906144    0.01159641992880   10.52021000512399
H         5.44985185234575   -0.73941639096860   12.11697257172756
C         3.03167344235368   -1.81504793827539    9.97880489415340
H         2.44815707332876   -1.71804040080482    9.06491365774915
H         2.81920264109033   -2.79242899768602   10.41361629391076
H         4.08792380510964   -1.77490412318234    9.72625294438132
C         0.14212870847480   -1.26529182379369   11.04382021975687
H         0.20451736980409   -1.50577188649606    9.98566430075473
H        -0.76010829727414   -0.67899986449806   11.20215121024559
H         0.05823274908859   -2.19576452688241   11.60762138666916
C         0.36872868598970    0.77827841966685   13.49396393322848
H         0.28458001390243    1.85072588670228   13.65957873902322
H         0.58001902208845    0.30425559699430   14.45430699628333
H        -0.58718690789423    0.40546223033693   13.13746130319192
C         2.31709237965473    4.21980910717940    9.22562785433433
H         2.25794732600676    4.97912904461760   10.01051877939563
H         2.77678004864005    4.67087647891624    8.34211040412451
C         0.91766780528922    3.70129469539740    8.91641266070453
H         0.93752244095439    3.10696126709285    8.00062732830609
H         0.19762445541935    4.51881049367843    8.80570161934858
C        -0.00116026531226    3.86768519443398   11.53411292836356
C        -1.11986007917630    4.68554942057553   11.41692939328852
H        -1.81309899396663    4.53486130935020   10.60029054829507
C        -1.34389438634721    5.68210899381440   12.34931067235206
H        -2.21358833165821    6.31676768437953   12.25943625995783
C        -0.45658092916329    5.87172110298568   13.39806142151315
H        -0.63889566991719    6.65133942304099   14.12297287055494
C         0.66175499187327    5.06319325741085   13.51571364864422
H         1.35574329002300    5.21089944361885   14.33120206431951
C         0.88494207355159    4.06471445867676   12.58419316748055
H         1.74939468820989    3.41763666560762   12.64412878960543
C        -1.20638623294735    1.96010154452653    9.84888554866062
C        -1.54525487411161    1.63501848053572    8.54004114163580
H        -0.85182884887755    1.83259053649264    7.73840639507242
C        -2.76815871022263    1.05073908611439    8.26183556593183
H        -3.02194115103773    0.80205582753680    7.24165122720902
C        -3.66278627471631    0.77971420069760    9.28361200020444
H        -4.61451906853179    0.31956084163281    9.06314701949545
C        -3.33391747580210    1.10147913681206   10.59083696054740
H        -4.03011540245239    0.89469042762912   11.39106665141031
C        -2.11198457535053    1.68267446797090   10.87140247456528
H        -1.85344524605908    1.94074655693103   11.88966441528039
C         4.36622868157811    2.40815102354323    8.39212666109253
C         4.46446000666602    1.08194453108612    7.99431116950274
H         3.92494567188471    0.33653957623820    8.55703554693903
C         5.21100545398722    0.73849106245959    6.88081220698480
H         5.27498912424339   -0.29472850609626    6.57158925172568
C         5.87037911148171    1.72063512587621    6.16094206584106
H         6.44851342989281    1.45703165439305    5.28755592435188
C         5.79251836168220    3.04481041655824    6.56472194067744
H         6.31628326957493    3.80972970627249    6.00968228208154
C         5.04838100973096    3.38947103702267    7.67753225945058
H         5.00964667256082    4.42112093601717    8.00223818322633
C         4.62273390569127    3.69951579327591   10.84476457944705
C         5.95995808608614    3.31524050743324   10.76314120367670
H         6.25465037610509    2.56007048856015   10.04851077615321
C         6.91367945403937    3.90051929411998   11.57542790603687
H         7.94699072761605    3.59589032482455   11.49407020841065
C         6.54714463338085    4.87174267448355   12.49237633997613
H         7.29179497015993    5.32867910139897   13.12691340170462
C         5.21890695443915    5.25039082581262   12.59340174842543
H         4.92413074462037    6.00341497067031   13.31003747186488
C         4.26360704574841    4.66333509541859   11.78344565222722
H         3.23100622602860    4.96258524537693   11.88635601651308
C         1.60916605296923    0.83861778532138    8.91645260971096
C         1.28048673619152    0.33938669266021    7.85527285707520
C         0.94985642180535   -0.21631137708653    6.61168651638805
C        -0.13241276477254   -1.10486031924704    6.49361595464709
H        -0.70760240061416   -1.34868580440317    7.37540526670721
C        -0.45916133306403   -1.64474789621448    5.27502526216683
H        -1.28905539849793   -2.32613119670935    5.16420545778124
C         0.29290607639801   -1.30987363517003    4.14674795611990
C         1.37296910891186   -0.42984880472122    4.24816654900153
H         1.93540925607632   -0.19148364863571    3.35818260127555
C         1.69603067251217    0.11221372175308    5.46673356287456
H         2.52891085504775    0.79386958338552    5.56481324742846

