99
CSD_code = QOJCEX | q = 0 | S = 0 | Stoichiometry = C50H38B2O6P2Ru | MND = 6
Ru        7.67909000289721   16.47601208744151   15.02849890796857
P         9.79696058126428   15.72356266891865   14.30759299364773
P         6.21322735381212   14.63893764457195   14.81879488558299
B         6.01387442350377   17.53102135946393   15.74107680109183
B         8.61629429168826   18.32279902411539   15.35436255232278
O         6.85526057363331   17.64362540427091   12.38498750443818
O         8.31525993206122   16.04588640476036   17.93335594703830
O         5.36233105439799   17.26762960480570   16.95382996265013
O         5.24118589123676   18.43818105434418   15.01434423400734
O         9.02902178597575   18.83663837473358   16.58478713778448
O         9.13858803633149   19.13560897746534   14.33880923842533
C         7.18644232494852   17.14676532469668   13.36606858821508
C         8.08499347979834   16.14717048401239   16.81270996665389
C         4.20602919394997   17.97771275129499   16.94652523179535
C         3.19571626746766   18.02866729039232   17.88354021433875
H         3.25689652517377   17.47095469268895   18.80451675908401
C         2.09901809879096   18.82459192044927   17.58294776345884
H         1.28592867038644   18.88807924981311   18.29071303259979
C         2.02334365637146   19.53745689786078   16.39547291092904
H         1.15219937132153   20.14419073718899   16.19790264760639
C         3.04076286880619   19.48931365916892   15.45262796034192
H         2.98496863071774   20.03889084062452   14.52684884603258
C         4.13062282048842   18.69783709116781   15.74812836201303
C         9.81116425187770   19.91444669930523   16.32798580765577
C        10.49738563043042   20.73663041414723   17.19677647627304
H        10.44679798465878   20.58799847655759   18.26334647546669
C        11.25724834902408   21.75292320435522   16.63438688876337
H        11.81155285099015   22.41486458699206   17.28293752027458
C        11.32239983986194   21.93675893251286   15.26109993287612
H        11.92625093983832   22.73844113711878   14.86267839291030
C        10.63057797139396   21.11236290440804   14.38463417240988
H        10.68076633381541   21.25003468338891   13.31623167324258
C         9.87739872374107   20.10077296834781   14.94190695116712
C        11.15587815124629   16.75191763249172   14.99241410644483
C        11.93716690229357   17.63082872934068   14.25329260404726
H        11.82483984275211   17.69365139800810   13.18081761238160
C        12.86313174350473   18.44112053209475   14.88942475265143
H        13.45643315158237   19.13082511294465   14.30704660716672
C        13.02199821533039   18.37985706441641   16.26185737630588
H        13.73336690131580   19.02615010097009   16.75373497256453
C        12.26291875867542   17.48731447367550   17.00272329643208
H        12.38600765710058   17.42924037784664   18.07407669871125
C        11.33727461650070   16.68006345733765   16.37300615104317
H        10.73904159343763   15.98687644025780   16.95035071116334
C        10.45007893198568   14.09087557706632   14.81188161695684
C        11.80870417053346   13.79687166852892   14.71498262480149
H        12.49081785748128   14.53893165265301   14.32204961926849
C        12.27651114661374   12.56278977805549   15.12412875321045
H        13.33013141625377   12.33613637639497   15.04889326356210
C        11.39962161643415   11.61692829659668   15.63518240117151
H        11.77319438004981   10.65642403990258   15.95829920896200
C        10.04965732489807   11.90662098024376   15.73657500454437
H         9.36218561615409   11.17809359948820   16.14109025967776
C         9.57999208024188   13.14117152562798   15.32551209427734
H         8.52725176697918   13.38570481252356   15.40871652402108
C        10.18152529211153   15.76468966186753   12.52076141935047
C        10.64003853546220   14.66199779621387   11.80760221880053
H        10.81368885651318   13.72153348591218   12.31180298026229
C        10.86509734163446   14.76290968022960   10.44526131700491
H        11.22203888512021   13.90205119378952    9.89798748568183
C        10.63358786352969   15.95709042298584    9.78453802884636
H        10.80966591043892   16.02991071237584    8.72141050538204
C        10.16828882424917   17.05658586677185   10.48891763319846
H         9.97954822904811   17.98790067230406    9.97557175787497
C         9.93641613729769   16.96178099406662   11.84824372022001
H         9.56069548523807   17.81234572645023   12.40243352250224
C         6.24220881396454   13.56137356803154   13.34085809951584
C         7.34805998634044   13.58676227355981   12.50468747433155
H         8.17644117118624   14.24065250620469   12.75177153616684
C         7.38794432045397   12.80033842248031   11.36734630808850
H         8.25266511574460   12.83466977190164   10.72077460535143
C         6.31453160713331   11.98162076758316   11.06064836793037
H         6.33764641995872   11.36848872661332   10.17179653555892
C         5.20392721426356   11.95205122288420   11.89157040145277
H         4.36580054089164   11.31505420486966   11.64885398136498
C         5.16247703583883   12.73833998935126   13.02702623333816
H         4.29525683966050   12.72220345480790   13.67353653797505
C         6.11997926528990   13.42726560775069   16.18454318486864
C         5.94033267506084   13.93576817739281   17.47082227550187
H         5.83949248374706   15.00490322086522   17.60756681461663
C         5.89631823866452   13.08186399040729   18.55686035744068
H         5.75280459914454   13.48236587302775   19.54957397311481
C         6.04465280826494   11.71582671539149   18.37378285703418
H         6.01564661111150   11.04930028624605   19.22316306764575
C         6.23784494574637   11.20798183624426   17.10059808352286
H         6.36040870433446   10.14411850126365   16.95517401959236
C         6.27724774984908   12.05663276553475   16.00743543522481
H         6.43952752931140   11.65077054386707   15.01863630209561
C         4.46239913560070   15.17905879314734   14.69466017001294
C         4.11963747145518   15.87308822543286   13.53486119857807
H         4.85619173842605   15.98994959759299   12.75027506432983
C         2.85833893269945   16.41360463665435   13.38685129755729
H         2.60890427572537   16.95734173782025   12.48769726725860
C         1.91973067673003   16.26996234335663   14.39687061323909
H         0.93852733630914   16.70815255370197   14.29236707835008
C         2.24566350046898   15.56472228523233   15.54098182655812
H         1.51599321563948   15.44545771070846   16.32852653923296
C         3.50929157407732   15.01787457016908   15.69208302152986
H         3.74705355550227   14.47177772828969   16.59318588404817

