113
CSD_code = QOJCIB | q = 0 | S = 0 | Stoichiometry = C57H45B2NO5P2Ru | MND = 6
Ru        0.70576808140112   23.18351727222280   13.35387960785043
P        -0.07201063445048   21.00002887533778   13.00228223378411
P        -0.17690934753976   24.27544859297354   11.45924533226798
N        -1.66005778711406   24.03778842361087   15.11665805281236
B         1.62452593613355   24.99652819055411   13.85603412463681
B         1.54450941565380   22.62676786484319   15.18985007843403
O         3.47700336949642   22.51218430105108   12.43045053333540
O         2.47504213385646   25.66824835789512   12.95966215150246
O         1.38034044344630   25.84100021893321   14.94159003507498
O         0.88143671281450   22.62681595886667   16.42648484179418
O         2.84280354655902   22.14270488471870   15.38977261103399
C         2.38314647424821   22.75172065310198   12.69768631184109
C        -0.78759545671337   23.71181763631886   14.39736471329047
C        -2.70546585559485   24.33694469955075   15.91867601603648
C        -2.55556592908221   24.29242688946848   17.30458799013150
H        -1.59523847397757   24.02280903061468   17.71639502603273
C        -3.63215342130443   24.59213275696092   18.11219393811358
H        -3.51861218979828   24.55892244348109   19.18638228189775
C        -4.86643256497445   24.93948138536712   17.56897353132768
C        -4.99927522518328   24.98014227564769   16.18590541375849
H        -5.95094069165510   25.24939581225016   15.74985181761020
C        -3.93453073808204   24.68435487862147   15.35828338322683
H        -4.03895785970713   24.71858593339195   14.28281579800360
C        -6.02751327097253   25.24411527776198   18.46521734031622
H        -6.81573077119118   25.75904016980314   17.92161567556871
H        -5.71486109276784   25.86355714153723   19.30354360690443
H        -6.44017553119124   24.31956874351290   18.87045580856628
C         2.70313376175959   26.90018787866381   13.47407772433546
C         3.42339173374481   27.95390812474785   12.95286103716868
H         3.93357968049315   27.86861852859764   12.00672748149752
C         3.45270841938190   29.12528918826496   13.69688565302217
H         4.00343212414053   29.97397089671622   13.31945781148269
C         2.79052786909672   29.23010366971737   14.91108352245551
H         2.83782118228920   30.15871241189418   15.46061180915450
C         2.06497009101792   28.17001288683894   15.43736243822215
H         1.54589540108713   28.24957551761724   16.37933765516737
C         2.02945585782819   27.00617140826871   14.69775615830443
C         1.74991844401188   22.13583689198234   17.34309236750073
C         1.57456753919342   21.90511540721349   18.69177727725099
H         0.64220202051425   22.13419513612742   19.18385539216180
C         2.64823295554232   21.36151166314888   19.38448094832272
H         2.54695882368655   21.16597458091697   20.44184294848189
C         3.84474656693542   21.06294647247545   18.74953168605957
H         4.65615939214774   20.63944560127697   19.32273525905494
C         4.02446942635805   21.29475029857623   17.39261733574668
H         4.95126726031655   21.06148717109856   16.89353367137626
C         2.95937181538942   21.83429761833392   16.70230353135490
C         0.98706359780037   19.84901965468421   13.94986601850515
C         2.12475041295412   19.27923892723591   13.39196945872779
H         2.33257814688331   19.40808617683862   12.33843090242232
C         2.99814621536777   18.55543338954513   14.18524871233318
H         3.88371949305466   18.11973030475503   13.74568300125684
C         2.74827712796542   18.40094011562573   15.53744297830704
H         3.43858732345365   17.84841604104677   16.15758548479587
C         1.61533423627716   18.96812398569746   16.10043924939238
H         1.42466931781445   18.85985051601290   17.15856106130072
C         0.74092645832025   19.69067064069593   15.31322712905490
H        -0.13304612131947   20.15439112490109   15.75292053652633
C        -1.73226641446250   20.45762958294337   13.55523543671422
C        -1.99258805495311   19.14548895665776   13.94785339069145
H        -1.19583376106662   18.41387486368821   13.94652094713230
C        -3.26388731953805   18.77903701643278   14.34962216153943
H        -3.45582941723030   17.76037399522293   14.65470035222500
C        -4.28924342569245   19.71165547435729   14.36408076982270
H        -5.27904327051988   19.42096142724264   14.68406897502465
C        -4.03955946879588   21.01490082448697   13.97036837585878
H        -4.83302472367730   21.74804827518273   13.98024192757536
C        -2.76853880663627   21.38308552972346   13.56735883707783
H        -2.57113980175978   22.39920052960205   13.25826041816902
C         0.01391216881929   20.23059384115787   11.33194077277524
C        -0.85708318400057   19.23728299636827   10.89469391190544
H        -1.63925584036832   18.87442736086379   11.54483128508746
C        -0.73785348726330   18.72087083213572    9.61624601232335
H        -1.42241070625228   17.95283193105333    9.28593651327492
C         0.24780086802124   19.18391579330593    8.76060906982670
H         0.33341668421507   18.77858060743879    7.76328855314199
C         1.11828185400609   20.17313805576415    9.18725438392297
H         1.88647226810136   20.54685734176263    8.52633408076707
C         0.99716701305829   20.69496213776475   10.46157314726328
H         1.66263904416923   21.48361074283467   10.78642901123449
C         0.63586212087294   23.99389825265312    9.84717268076323
C         2.02037894361328   24.16860488510147    9.83962768440763
H         2.51117475473169   24.48726855776285   10.75120891574037
C         2.74642900852553   23.94941716622465    8.68575412256516
H         3.81783524998732   24.08679017292641    8.68813463764208
C         2.09877539621765   23.54686924999632    7.52686910673908
H         2.66577601995250   23.36470287626888    6.62545284144234
C         0.72454219051165   23.38461800304002    7.52600796155812
H         0.21660004218926   23.08035572933550    6.62213247184147
C        -0.00981966825517   23.61068364213949    8.67878204906071
H        -1.08299034920904   23.48928773687426    8.66046175078147
C        -0.12796469184921   26.10686165014133   11.55135711222170
C        -0.61970543196894   26.70013093844624   12.71426775886538
H        -1.04121494367384   26.07447316140074   13.49089332435784
C        -0.54244849934509   28.06734859636160   12.89401511076823
H        -0.91627063843494   28.51242839941603   13.80451355265251
C         0.03128587776559   28.86341699496889   11.91495879534577
H         0.11289336483255   29.92972047115778   12.06382965614717
C         0.50475120536154   28.28466857847155   10.75129601790303
H         0.94906914265456   28.90135847908507    9.98347791972413
C         0.42291951844305   26.91454779494731   10.56444677714879
H         0.80141943693122   26.47736549889731    9.65205779973541
C        -1.94452046407011   24.00265804490400   11.05937953613242
C        -2.92908236118356   24.97594129010264   11.18661440576500
H        -2.66382694539006   25.98398903884192   11.47084506798259
C        -4.25615473214741   24.65795230395166   10.94837454181533
H        -5.01392435090858   25.42120560926276   11.05471103365395
C        -4.61534958374839   23.37430529521403   10.57457669054281
H        -5.65188978644957   23.13313578322046   10.39031106734668
C        -3.63939970319755   22.39932128075336   10.44039574807213
H        -3.90904135710922   21.39370177671431   10.15222848019033
C        -2.31720721404436   22.71100620070014   10.68981247192148
H        -1.55479961555539   21.94717752682965   10.60702007990926

