90
CSD_code = QOJGOM | q = 0 | S = 0 | Stoichiometry = C46H36BrF3OP2Pd | MND = 4
C         4.56858928311698    6.47981013801428    2.94413735036561
C         3.54398044031002    7.32034292804060    2.18573292827874
H         4.03703833261887    8.01700842200721    1.51202346998292
H         2.92462317079761    7.87701438713659    2.88424017484325
H         2.88169856956665    6.67717052655788    1.61205789892586
C         3.81680564018428    5.51230216183988    3.88303932259819
H         3.16433881425573    4.86274224756730    3.30302607437108
H         3.21195054277701    6.07581582249907    4.59064822240351
H         4.51088963248574    4.88977750927776    4.44393210917664
C         5.50250073245121    7.31961594397874    3.79475580476882
C         6.65303115884258    6.69429483809430    4.27524703898033
C         7.52703992817008    7.35739700193867    5.14973971009682
C         7.24541028281631    8.67236439731438    5.50027393842117
H         7.92358092404322    9.20413508424160    6.15022753598569
C         6.12698109414113    9.30857280420433    4.99881819087964
H         5.92762731060647   10.33502937887687    5.26581643530586
C         5.25923681822251    8.63520472747757    4.15759813119752
H         4.38834987144245    9.14819050758197    3.78497893553354
C         5.44310614732946    5.64943343363817    2.02393533065132
C         6.59809077745991    5.09692896826053    2.57780329383928
C         7.42077760400818    4.23909897545891    1.83217332373522
C         7.08114642077713    3.97574195269523    0.51049587252148
H         7.71883910092647    3.33881443804529   -0.08345661528729
C         5.95694639399193    4.54619571674993   -0.05315214781537
H         5.71242290702713    4.34554650984337   -1.08495034715416
C         5.14177206118666    5.37258288788415    0.69948943104681
H         4.26600912394510    5.80131330338838    0.24160664683911
C         9.46937927489002    3.56853890326876    5.52010998430125
C         8.27966293315695    3.06300814564163    6.03421743113625
H         7.32857264936112    3.45766546669298    5.69112317590221
C         8.28472150507968    2.06056806431993    6.98340710712300
H         7.35842082435617    1.67145001184095    7.37910303666578
C         9.49761877929864    1.54849393365561    7.42533132219926
C        10.69577144075918    2.04199729077517    6.92597518029939
H        11.63281762233443    1.63631186144918    7.27901501087747
C        10.67562043908332    3.04675275076989    5.97507097823111
H        11.61803447574205    3.42722713076578    5.58631635630203
C         9.51902182284122    0.48952494200017    8.48068808604263
C        10.16683508690959    7.83644196570903    6.28465824787080
C        11.29073827664309    8.07957913104526    5.50271785969269
H        11.45290895616871    7.49944073183780    4.60105769005523
C        12.19477386682113    9.05845603005199    5.87427651233448
H        13.06263023108957    9.24953229856668    5.26118438033840
C        11.98637028997196    9.78757162704205    7.03286069106171
H        12.69126794509558   10.55197700222551    7.32480096817817
C        10.87966205194312    9.53080495665040    7.82808157230642
H        10.72666455847322   10.09094781256332    8.73920646059423
C         9.97159807307845    8.55550348744621    7.46181411228872
H         9.11871408758262    8.33862824545707    8.09163087140734
C         8.48587098144932    5.83464883666921    7.36562072277319
C         9.47449187400174    5.31385289444340    8.19869075669577
H        10.51458446900332    5.42901396219319    7.91826392554266
C         9.13091722819896    4.64906369346177    9.35802337353478
H         9.89911620582041    4.23697360260701    9.99490019790846
C         7.79456054905685    4.49473956387213    9.69493818741325
H         7.52562682584786    3.96198543521141   10.59447598596451
C         6.80869062766767    5.01714476747989    8.87599772545502
H         5.76768574816333    4.89960691740729    9.14063011513397
C         7.14906848402017    5.68223894274368    7.71032746533018
H         6.37643510309788    6.08244796323739    7.06708127055678
C        10.00313722566648    3.06764356607947    1.17738923469490
C        11.13280785966010    3.83907153945732    0.92758757562336
H        11.34293157176238    4.70101942447339    1.55057382008631
C        11.98156084586785    3.50780841504387   -0.11336390926058
H        12.85392351786769    4.11303958931760   -0.30891946305876
C        11.71228194611867    2.39988405711610   -0.89909889491437
H        12.37367337254585    2.14000080873873   -1.71238478980431
C        10.60007990562409    1.61403747272363   -0.63734243978965
H        10.39923722534544    0.74190267610606   -1.24262296840398
C         9.74715313337112    1.94014981513873    0.39996545883458
H         8.89007118971454    1.31686017338003    0.61909279655387
C         8.37166135548677    1.90523578238839    3.17467126599731
C         9.35467023668522    1.01413496948164    3.60118425459264
H        10.39738510714628    1.27208732531521    3.46041412938840
C         9.00287991141778   -0.17499190462484    4.20637089981859
H         9.76913321900248   -0.85787540916693    4.54210268157102
C         7.66434319916246   -0.48392447384576    4.39616591052159
H         7.38830738369741   -1.40697296626159    4.88319725982904
C         6.68369375468226    0.39345891237605    3.96717879693378
H         5.64091837223789    0.15089929890976    4.11236353948728
C         7.03228088190239    1.58849472626339    3.36128520088318
H         6.26420933389121    2.27683820207565    3.03397492301540
O         6.95064400835835    5.40836286824815    3.87447631752502
F        10.54206592355982   -0.37330781499402    8.34380097341039
F         8.40222379326173   -0.25793200736828    8.50771408428854
F         9.64293020427523    1.00616734249212    9.72540625765209
P         9.03310001309867    6.51706999479388    5.77009604776215
P         8.93862457728757    3.52630544887303    2.57331638513186
Br        9.65001331590705    6.81903957841580    2.47270043649033
Pd        9.47902124485101    5.02150920735076    4.15736939308742

