52
CSD_code = QOJHIG | q = 0 | S = 0 | Stoichiometry = C22H25ClNPPdSe | MND = 4
Pd        7.15673837330155    2.53830570967880    6.71599853019838
Se        6.11594859946409    0.75992027751510    5.53913871192895
P         7.79860554225845    1.37967192510728    8.49050355697824
N         6.55009821328281    3.84268406109239    5.15479811408793
C         7.06279615760619    2.20416365606770    9.92689008869079
C         9.60774784152931    1.28955178941445    8.53701222274283
C         7.67035836220289    2.45836510603480   11.14667120489938
H         8.69260834613757    2.15704692908893   11.32047161833512
C         7.35981221216286   -0.37112678670801    8.71886045918712
C         7.48045798975898   -2.59720697918926    7.82314024284837
H         7.79843223717374   -3.27841365046091    7.04838117097529
C         6.63990267442823   -0.84286802189071    9.80848162912666
H         6.30647397344862   -0.15806278413921   10.57637004427867
C         5.75803300594324    2.63959463343304    9.68822347548721
H         5.31211479472416    2.45475038903702    8.70237282167708
C         7.77636849498672   -1.25227365292866    7.72410447415459
H         8.32174405955797   -0.86367726439210    6.87044442287398
C         6.76620426485886   -3.06802292298356    8.91465242928848
H         6.52954661447875   -4.11901489905468    8.99122371678241
C         6.34727553099901   -2.19286258212402    9.90220498250820
H         5.78522248823868   -2.56089383771357   10.74837350783162
C         6.96440492205239    3.13331233882218   12.12968207413684
H         7.43711361514395    3.34216072682831   13.07829416127327
C         5.05890645063736    3.30514414875276   10.67461425373909
H         4.04993976696141    3.64565377620689   10.49287978991582
C         5.98641847069908    3.15218346601677    3.98456486110496
H         6.82084679744918    2.75184935703624    3.39734155021842
H         5.43551290883863    3.87465656452847    3.35770269973774
C         5.09096824731191    1.99271100747568    4.37186464279607
H         4.78200635985986    1.43357258327994    3.48694316788737
H         4.19679731543354    2.31310406300948    4.91037202054779
C        10.27735773445352    1.72403595728252    7.39563847656429
H         9.69654835678442    2.13792521685696    6.55987185518351
C         7.65676880843044    4.69706970057294    4.72304485081420
H         7.31838689233431    5.42531023774071    3.97330689549939
H         8.44795299944000    4.07915127080449    4.28680754267657
H         8.06445784954998    5.23130982346436    5.58343134711457
C        10.31771132759649    0.72301030353265    9.58965394639290
H         9.79018067031931    0.33251154526056   10.44912619860576
C         5.66450143197627    3.54907332110768   11.89908694247433
H         5.12395539815207    4.07855678965671   12.66967489654979
C         5.52770217028899    4.65221626344387    5.82502781353719
H         5.08691852051680    5.38056381235223    5.12912559552395
H         5.98428706096958    5.19103344025652    6.66084835094459
H         4.72981443130134    4.00810766612569    6.21466921608606
C        12.36461363776247    1.11010683853873    8.39679221965424
H        13.44197912181814    1.05022337424119    8.34997521188777
C        11.65536295652170    1.63711688301988    7.32910997239699
H        12.17903673560676    1.97928906096152    6.44875303827323
C        11.69707277046419    0.64724035107795    9.51966995421812
H        12.25427830245120    0.22054273107414   10.34088083160246
Cl        8.17080819233897    4.24672628580855    7.94202819794896

