76
CSD_code = QOJKOR | q = 0 | S = 0 | Stoichiometry = C23H45ClN6Zr | MND = 10
Zr        6.82157395683933    1.28956604545145    4.51209743916083
Cl        4.44746039965219    1.38469945052275    4.87418013716829
N         8.89722433348953    0.04315156534675    1.27019820331990
N         8.64229609634904    1.29776889503931    3.29450145742323
N         6.87539886092632    0.13106701505879    2.65865900225891
N         6.30667702088773    5.30713851813535    4.69820169280055
N         6.36415752422564    3.22535659045677    3.53025632171169
N         7.06936224699336    3.17435040098146    5.63437602188120
C         8.12191921637320    0.48837474109629    2.39033727764625
C         9.46490200682499   -1.28440207019270    1.41043065047318
H         9.73081173009204   -1.45391221787013    2.45088817246625
H        10.36670081367491   -1.34837741081271    0.79585858161316
H         8.78304759336140   -2.08335509951461    1.08589123672925
C         8.37487125090803    0.29404577270949   -0.05586512197927
H         9.21958418712884    0.33497801959076   -0.74958376307745
H         7.86665280202975    1.25621087215704   -0.07090847846538
H         7.68179065464997   -0.47919889505949   -0.41443411585745
C         9.91126070098001    2.00532451761082    3.16525165472922
C        10.10523877550724    2.75647135421251    4.49174986696600
H         9.23884825801409    3.38983835123791    4.67758405410070
H        11.00011704145044    3.37486345913078    4.45174204828340
H        10.20560501946331    2.04516088810924    5.30995709372871
C        11.12921276679087    1.09574070747904    2.94227979203684
H        11.13808866039443    0.28781980077806    3.66939233970572
H        12.04118486116649    1.67677440684335    3.06260891764366
H        11.11568770016229    0.67348450599042    1.94483538287847
C         9.82050498943383    3.02937620331530    2.02396351189161
H         9.72128270936021    2.51901516525999    1.07055247943166
H        10.71115885306608    3.65352834175428    1.99783465602681
H         8.94613903391421    3.65815656827968    2.18334854527822
C         6.12295715682810   -0.81346790708632    1.85214941664693
H         6.74641913891367   -1.66331033629206    1.54157624074913
H         5.74859080366733   -0.31994417899867    0.94134230974962
C         4.92760398525606   -1.34308647947408    2.64346602081348
H         4.23500419401742   -1.84997475034384    1.97446369796771
H         4.40842216075210   -0.51817189705965    3.13432166211705
H         5.25538405157919   -2.05139095032769    3.40080630986979
C         6.57415584046803    3.90446150996667    4.64295085510621
C         5.36996951099238    5.78578777629459    5.69342728054255
H         4.63196184155547    5.01032558063586    5.88509023012229
H         4.85884605708666    6.66531182325181    5.28949578085365
H         5.83794302308586    6.08027123262762    6.64233529156424
C         7.43500615162849    6.18490706029746    4.47622301579977
H         7.98620356246265    6.43279455782216    5.39676521087946
H         7.07278530258154    7.12337367555909    4.04595946702679
H         8.12702503458694    5.71740449407751    3.77843027395671
C         5.52445366174144    3.71355071877687    2.42928904069586
C         4.16928224942653    4.24835009207223    2.91849262729452
H         3.73671236892290    3.54977067055428    3.63138086486849
H         3.49177764428461    4.34951256234828    2.07345320319899
H         4.28194680232694    5.21824302441259    3.38815419825777
C         5.25687703833340    2.49307657888338    1.53917761856959
H         6.20313205479260    2.09376675834616    1.17817658978893
H         4.63966750370078    2.77288298137484    0.68728305070182
H         4.73824914176440    1.73263273333042    2.12454386237236
C         6.22192474568396    4.79159949629314    1.58491318330938
H         6.37338224575532    5.69494629254655    2.16413950182489
H         5.60086668665849    5.03388332870275    0.72520525537605
H         7.18313969492227    4.43202450569141    1.22420388352665
C         7.49667150377319    3.77911539933810    6.88587299844268
H         7.60478359252597    4.86383007001800    6.78789704849578
H         8.48991362585249    3.38217301247780    7.13933166747004
C         6.53258640219379    3.47446888193199    8.03762492003288
H         5.50681225202527    3.67071505968941    7.73359072798581
H         6.77215933522251    4.09663168917329    8.89779791909914
H         6.60948115789099    2.43229839209117    8.33274367181073
C         7.54455101250867   -1.21645095046824    5.10804238222233
H         7.67235922970298   -2.03091584328479    4.40717484671819
C         6.65533386447129    0.12702997567971    6.72069066301633
H         5.96570799966468    0.49103438598232    7.47366789084706
C         8.03056627590171    0.43576439705194    6.60207565330417
H         8.60220370958262    1.06309248075877    7.27500885362066
C         8.57354442703370   -0.40249900310491    5.60919492688752
H         9.62235760455229   -0.49029646710877    5.36122691304025
C         6.35906141107360   -0.89268765935414    5.79281745664195
H         5.40855687813189   -1.40695123822289    5.72144045885839

