85
CSD_code = QOJLOQ | q = 0 | S = 0 | Stoichiometry = C36H40MoN2O4P2 | MND = 6
Mo        1.51971211567044    3.27467699271429    0.98070125194116
P         0.84038635986414    4.83850212213836    2.66326347364744
P         2.10697465950640    1.59524744906137    2.58244040320527
O         4.40525555413930    4.38938480232102    1.07869612797233
O         2.30185507741435    1.29697049710486   -1.25749019707046
O        -1.36114354525423    2.15393961454804    0.83395648140633
O         0.85277313170336    5.41309854359973   -1.14448048630489
N         0.06440703333549    4.17249945535266    3.98148690242393
N         2.80235132469517    2.16916243403780    3.98757644156625
C         3.34042614725982    3.97163387719232    1.05725065267096
C         2.02677861357815    2.02602703900542   -0.42180199012738
C        -0.30023457743652    2.57582323198208    0.90406662070721
C         1.08533531243616    4.62257573031051   -0.35291659639047
C        -0.21924275387580    6.19078739487053    2.02007105812160
C        -1.31759558821240    5.79408824285844    1.26269275747130
C        -2.17185057835050    6.72979912662201    0.71062092752941
C        -1.93193426309938    8.08088671066272    0.90087837892577
C        -0.84345275392906    8.48564988558581    1.65454187750334
C         0.00715946699016    7.54928794054729    2.21610295335070
C         2.22560903354770    5.78475605493324    3.37094288360853
C         2.96412769884374    6.59673897131475    2.51218785818873
C         4.10191174631148    7.23673446532269    2.96358266082953
C         4.52406268494867    7.06066021574787    4.27312745986153
C         3.80714843570621    6.23943222804878    5.12632340922459
C         2.66525179855762    5.59893251289120    4.67543273683035
C        -0.93205871360134    4.67858174576061    4.93433496898418
C        -0.75366141722086    6.17134226191637    5.19431891788144
C        -0.72657720801081    3.90608659845330    6.24411480222370
C        -2.34353969643252    4.40679717118723    4.40392487916663
C         0.68397237750522    0.60951428964990    3.14455098269826
C         0.00071367051818   -0.14692967836162    2.19415737497329
C        -1.16572583801175   -0.80450581207587    2.53302546989236
C        -1.67282012567005   -0.69989902203828    3.81987199825165
C        -1.01143982321802    0.06715727152020    4.76355621827924
C         0.15983576154995    0.72393410301658    4.42576930220660
C         3.20007110793716    0.28457942724538    1.90735087269776
C         2.96997388545158   -1.08335070340090    2.01555067439730
C         3.84779964394947   -1.98574150967654    1.44023096446147
C         4.96640312337505   -1.53784348967731    0.75861604469954
C         5.20914967447190   -0.17787957535631    0.65506916060231
C         4.32902557641425    0.72435464448227    1.22218584948847
C         3.74950331738957    1.59532505670902    4.95249627755248
C         5.18789280664007    1.80610751815125    4.46819673652147
C         3.48981099385276    0.10877914519523    5.17460445776210
C         3.54444768664623    2.35065643833408    6.27182112152377
H        -0.08870506572639    3.18240539407669    3.80726924875417
H         2.97428967811648    3.16605514831606    3.88168619879538
H        -1.49755164177377    4.73889801484468    1.10181628682478
H        -3.01935177272528    6.40586655925690    0.12440822586101
H        -2.59021696715683    8.81558537815749    0.46160786603977
H        -0.65338057858135    9.53812573833135    1.80834988752564
H         0.84424180163282    7.88205800702387    2.81358129243136
H         2.63535316812161    6.71631249486918    1.48544031143485
H         4.66730454865782    7.86822084380604    2.29415208158243
H         5.41603567251212    7.55801700423505    4.62441090075827
H         4.14033100845773    6.09706202631434    6.14530163587356
H         2.10407442480787    4.94853020819796    5.33215169209860
H        -1.05829820959976    6.75273024948128    4.32964553827512
H        -1.37180286854253    6.46873473606676    6.03840143072650
H         0.28212812904254    6.40361148752161    5.42566829047631
H        -0.88656029618469    2.84233179270057    6.08748851441182
H         0.28189400448430    4.05755416484479    6.62207354869068
H        -1.43076095468422    4.25027149306439    6.99715478683280
H        -2.51061497542427    4.95741909512164    3.48078337500564
H        -2.47623430975835    3.34465548707416    4.20260077458443
H        -3.08882261561684    4.71721306803294    5.13218445104980
H         0.39465857506215   -0.20868994476528    1.18540525706551
H        -1.68777843816243   -1.39306967366515    1.79299791833398
H        -2.58773410560202   -1.20999064812185    4.08278878507709
H        -1.41172938528679    0.15502775882689    5.76441742782066
H         0.67971325974238    1.33191175734597    5.15340561756554
H         2.10613411824729   -1.45051411464090    2.55220821258388
H         3.65467665916686   -3.04538115919458    1.52597256896728
H         5.64561417366911   -2.24586523875523    0.30759037363521
H         6.07972955474137    0.17969970972601    0.12501580068397
H         4.51327893881153    1.78697953355478    1.13053812905782
H         5.36684116291066    1.23824064912673    3.55802190512167
H         5.36735240346957    2.85997251830644    4.26003785813091
H         5.89517962581591    1.47795246366234    5.22599270039741
H         2.46158393213970   -0.06626758348006    5.47780588346818
H         3.68875859129236   -0.45541845644122    4.26894257511915
H         4.14845558807215   -0.26027367502189    5.95748780800653
H         2.50973561600485    2.27267926612984    6.59792164032045
H         4.18161043637032    1.93229836844067    7.04662871606002
H         3.79601817588713    3.40148865818017    6.15124336346885

