44
CSD_code = QOJNOS | q = 0 | S = 0 | Stoichiometry = C14H24Cl2PdS3 | MND = 4
Pd        3.91078123345357   12.41328465787241    4.55650449012172
Cl        3.43196014619072   12.23644427831629    2.37723546218140
Cl        1.91452905444175   13.38055344833298    4.86094500850524
S         8.65394070396492   12.62048532186643    7.36589421276563
C         8.21422978959865   12.04442516774018    5.81014744376566
H         8.97386067053400   11.77199271962832    5.10569552016874
C         6.86506422439977   12.01651961187793    5.63742629787058
C         6.16015562387397   12.45434650027908    6.79751125125895
C         7.00366616635559   12.79224768769929    7.81064805413928
H         6.75480790457449   13.14208798743513    8.79149885254861
S         6.05565747262613   11.47551801884625    4.14816424036607
C         6.65264592585894   12.77367721232150    3.00090695884877
H         7.72588454671289   12.63074162456409    2.88281611316940
H         6.13450835973085   12.54612685801759    2.06751473863340
C         6.29901959991115   14.17616211173696    3.47629562063743
H         6.89504125660281   14.43480227387667    4.35821104556450
H         5.21750644751460   14.19385882471559    3.75171903907757
C         6.51342780738183   15.23936288863128    2.39145865241884
H         5.97304351657349   14.92254153433542    1.49425112261678
C         5.92366438186453   16.56543461258091    2.86681385729867
H         4.86522316785147   16.45186450465906    3.09044547683642
H         6.03072756278346   17.32562672780299    2.09765559029970
H         6.43457216086928   16.91236728168543    3.76334461889371
C         7.99236843708867   15.40446331884113    2.04931997621499
H         8.40165537704847   14.49473604468370    1.61793695665558
H         8.56515454044471   15.65702401781497    2.93991784878560
H         8.12010635438648   16.20511033772391    1.32539572127952
S         4.38427013578902   12.49672029823551    6.88336429322601
C         4.08309712669607   14.28036747599901    7.20338473303511
H         4.87920342088607   14.84850345730310    6.71848273846824
H         3.13293807298156   14.46900240002431    6.69642048226621
C         3.98354993236887   14.58525969091197    8.68719338477590
H         3.26630503296092   13.90189874591196    9.14619083701224
H         4.95346933367255   14.42229818159510    9.16283428010016
C         3.54022878689990   16.03170591227748    8.94992754860021
H         4.15275628238956   16.69945350307995    8.33316927354851
C         3.77163775880690   16.37986246922465   10.41948171968669
H         3.46089303915178   17.40197801930142   10.62013062261707
H         4.82331969179530   16.28569164500104   10.68226728046047
H         3.19582706189980   15.71543856461373   11.05991718497099
C         2.07152843081996   16.23812043186157    8.58981116481346
H         1.77822579862093   17.26575662773025    8.78977140590638
H         1.44167552097203   15.58118014295025    9.18529990880189
H         1.88407214065801   16.03295686008126    7.53967897080396

