118
CSD_code = QOJPOV | q = 1 | S = 0 | Stoichiometry = C52H56ClN6P2Ru(1+) | MND = 6
Ru        5.38933576411635    7.21699747745142   13.15093692461255
Cl        6.01891411076173    5.75117364970186   11.41301825837965
P         4.29632537184697    8.38079156829347   14.84149490017524
P         7.33769393326941    6.54221435025614   14.14960210628872
N         4.07342911185301    7.94777085731218   11.47945412850229
H         3.14618488723358    8.43657349837371   11.36767601238505
H         4.11868031150038    7.17211878254204   10.80277161442826
N         5.12041361002024    8.85840940370302   11.19603214849522
N         4.36438173067984    5.35426140280805   13.89893995728768
N         4.77901650144205    4.48125767591909   14.83814597533461
N         1.78840000464363    9.43639543997002   11.34723218330063
N         1.54594285089007   10.09371571365976   12.49275740903243
C         6.08754457304987    8.71894153508446   12.07084313896677
C         7.33246795868198    9.52832778793745   11.86472722467721
H         8.10619133653464    9.16794057680072   12.54825831834675
H         7.13522188805858   10.57847677072035   12.10234217954090
C         7.84152416136375    9.44032291524036   10.44483684383573
C         8.09975852684571    8.19719681780590    9.88249709871051
H         7.93827131376871    7.30415482097108   10.46663541062473
C         8.54926126060060    8.10094273959384    8.57859372473357
H         8.74262142617999    7.12871114410622    8.15102369956548
C         8.74831486062727    9.24509306942136    7.82471090162722
H         9.09601725789561    9.17005932918548    6.80561429553457
C         8.50540232253477   10.48714884376147    8.38458000431774
H         8.66509642304434   11.38403720963665    7.80522296193687
C         8.05597449580283   10.58445546884196    9.68935439930526
H         7.86876188692267   11.55896971864114   10.11858905890056
C         5.01267634537983    9.65915612848886   10.02769455574249
C         4.85745661803794   11.03395049515307   10.13801838668075
H         4.83930735396506   11.50029165694125   11.11261616655565
C         4.72870180139105   11.79742215790873    8.99214217915772
H         4.61062877920246   12.86716542046601    9.07169642971645
C         4.74770747755066   11.19137401830241    7.74730341659775
H         4.65123969642086   11.79125199329132    6.85591137291041
C         4.88835598184515    9.81728774593036    7.64308757137494
H         4.90332613670364    9.34582782402055    6.67285730449945
C         5.01308934954748    9.04469182092374    8.78204569879357
H         5.14403559520344    7.97492923595392    8.70894818481505
C         0.70581547426464    9.55765068495972   10.59396325887937
C        -0.26109053179579   10.30940460553979   11.27923186660227
H        -1.23576681323194   10.57739678082800   10.92890562191373
C         0.30651233969669   10.63502691187811   12.49376755984892
C         0.61940821482795    8.95034641142456    9.24188388851029
H         1.60848588862528    8.66183803257125    8.89327983099721
H         0.18578791362060    9.66004147771303    8.54084118030989
H        -0.01897216588005    8.06690837068442    9.26453414178032
C        -0.23247472015126   11.41497599036387   13.63432218264634
H        -0.23697331736820   10.81946569930015   14.54682452293960
H        -1.25054017289772   11.72160275037697   13.41422688506326
H         0.36660151182000   12.30839347034204   13.81190475883295
C         2.56437284778698   10.12471934975180   13.50393770066755
H         2.43924098423103   11.02140413849076   14.11319234111154
H         3.52895127976651   10.19468530989770   12.98707624305566
C         2.55119609944857    8.86638589780486   14.38517331434858
H         2.09782481333071    8.04213060641647   13.82962694647173
H         1.97237094560215    9.02724448149288   15.29806842612519
C         3.97228712666766    7.35678962303778   16.31741421384868
C         4.87594422761088    7.37106895365858   17.37939129810085
H         5.71763881666182    8.04834522446383   17.35342087486476
C         4.69135695663051    6.53613317827096   18.46679617152878
H         5.39260853222637    6.56469434124877   19.28719391634445
C         3.61348809250100    5.66536801036439   18.50027557020735
H         3.47040126858786    5.01338577204199   19.34848068496092
C         2.71666793157955    5.63920441717755   17.44508501064794
H         1.87433802040265    4.96394318510133   17.46672156400877
C         2.89286285091661    6.47894391553771   16.35933247454765
H         2.18708675632202    6.44379205588654   15.54243936856338
C         4.72488756921954    9.99280667231615   15.60030110620997
C         5.46726158974857   10.90464059619624   14.85963440121819
H         5.83049216915886   10.60806137286505   13.88509836256785
C         5.74437053151224   12.16334971530903   15.36045800978489
H         6.32849912901145   12.86166032242288   14.77943907234395
C         5.27233312741531   12.52544764599645   16.61143465353472
H         5.49208730621251   13.50372053041247   17.01063525567898
C         4.51241898326331   11.63048647945662   17.34680755386220
H         4.13365584559825   11.91439123661337   18.31707870723552
C         4.23160580983367   10.37250855057697   16.84392923249529
H         3.63189289259928    9.68615961362950   17.42407863405869
C         3.24415702215890    4.84792891300291   13.38679284052066
C         2.92920866767682    3.64608488312663   14.02762846609133
H         2.08663355965257    3.01652456586836   13.83065965287556
C         3.93083932452941    3.43665700888755   14.94842763085843
C         2.46536843908354    5.43358005628312   12.26424037834457
H         2.29583300731036    6.49957770831764   12.39558647577905
H         1.50438199898179    4.92997035877365   12.19521802149015
H         3.00008696026214    5.27125376496983   11.32820172455778
C         4.10406796485667    2.31921043532726   15.90906713095386
H         5.01167617527099    1.75344659313091   15.69940338675852
H         3.25733093389555    1.64417849629865   15.82376916078266
H         4.15156877840637    2.68846323472842   16.93335805808954
C         6.01390777428155    4.62742156427067   15.56200729486968
H         6.12600084806694    3.74586219358444   16.19430208497822
H         5.95447172933523    5.51289054018844   16.20874894029611
C         7.19961957092185    4.76321395336582   14.60388742968741
H         7.01015081457079    4.18277952084818   13.69702649027565
H         8.12960567331988    4.40561316238269   15.05110591511726
C         8.89858279569357    6.56876716164401   13.20217562680958
C         9.82989015566975    7.58699541930933   13.39720520159887
H         9.66179080450247    8.33675200383730   14.15783360405790
C        10.98376649303369    7.63427069393211   12.63629507742353
H        11.69652689160066    8.42940211653298   12.79597993967037
C        11.22523152045599    6.66751021710520   11.67489005018702
H        12.12333667098177    6.70974738309702   11.07814693076767
C        10.31241749630890    5.64379502559677   11.48648325032697
H        10.49789293869389    4.88282625545950   10.74348255636207
C         9.15499661478244    5.59288324848393   12.24199816359753
H         8.44411724698779    4.80077614146993   12.06455967485189
C         7.87211300734720    7.31818133353218   15.71161378855488
C         8.41033801964424    6.65229572381695   16.80649970839928
H         8.54671395972324    5.58194175999684   16.79616482937830
C         8.78148297352147    7.36527851579790   17.93436143532800
H         9.19382889876371    6.84092593601339   18.78339711915669
C         8.63190891718003    8.74157074472272   17.98002928384857
H         8.92202812502958    9.28743899178003   18.86465639292371
C         8.11300507666929    9.41487479496342   16.88535582896659
H         7.99597117439698   10.48831644875429   16.90939313090715
C         7.73609951165891    8.70286380253599   15.76237159144780
H         7.32044232356812    9.20499988146955   14.89995678005351

