58
CSD_code = QOJSUD | q = 0 | S = 0 | Stoichiometry = C24H30BO2Y | MND = 14
Y         2.42263327259016    1.25487934786478    2.64328479757088
O         3.41437795070587   -0.79877688568436    4.13919390685472
O         0.85928265530592    3.14743420328163    1.31702809933969
C         3.44859059232073   -0.54225081119364    0.88922178410171
C         2.94355733481772    0.47310410220354    0.05651473648986
C         3.71140302157352    1.64556793809645    0.28638506023681
C         3.74078843189447    2.90830341923752   -0.33391416263271
C         4.72191941245299    3.80414654715449    0.01019387815059
C         5.70414799212766    3.48082676932903    0.96226894417672
C         5.70765503888413    2.26519339342820    1.59992671873703
C         4.70282251939370    1.32535939850000    1.29930765233667
C         4.50538497566400   -0.03694664838569    1.67682048914125
C         5.32797650336129   -0.81744261091027    2.66662715195895
C         4.43872195580346   -1.63514140453139    3.60626296280933
C         2.59738956664204   -1.50773754766077    5.05339914100119
C         3.24169748556375    3.49134065914825    3.49492538661864
C         3.66925620525603    2.47118281450540    4.40387778975683
C         2.61512913443169    2.30291532093403    5.35525974103498
C         2.50949384841268    1.53525683591354    6.52262223371482
C         1.34676706933528    1.58585526975440    7.25565041643175
C         0.27160737938898    2.39031206617289    6.85461550245885
C         0.35076405167812    3.17472341840054    5.72822340397291
C         1.52549974410443    3.16149958106093    4.96562662307103
C         1.94108678960673    3.89923610610740    3.82313062744572
C         1.12139619701664    4.85586526736136    3.01598811737989
C         0.14599379493047    4.10248713099046    2.10430704507155
C         0.05166276672499    2.65612181463685    0.26254889068297
B        -0.46723574977654   -1.05282050882023    1.93447514742204
H         3.13474929680695   -1.57769288549331    0.85432367805427
H         2.22619156696594    0.32628020177227   -0.73834119489990
H         3.02049052799986    3.15086266840918   -1.10466009908287
H         4.76154218774609    4.77070736679466   -0.47174829353740
H         6.47689325333961    4.20406955272329    1.18142102603553
H         6.49101505355786    2.02267748514784    2.30694610930633
H         6.00839597989474   -1.50871362245687    2.15700142017346
H         5.93350875939800   -0.12665514863572    3.25800993786090
H         5.03679420927979   -2.05058279557648    4.43113254781026
H         3.97674177485399   -2.47202557706913    3.06198644372903
H         2.09057102805804   -2.34437964095937    4.55786185139363
H         3.19868339618048   -1.89817824401898    5.88294372849496
H         1.85830797298197   -0.80633060334050    5.43935722703570
H         3.88314868586885    4.00446547494530    2.78629350731460
H         4.70208230461255    2.18785626110080    4.57520615688070
H         3.34391716977224    0.92834162784803    6.85000541728122
H         1.25611012210106    1.00414215116818    8.16243286063940
H        -0.62715218715552    2.39970827948570    7.45479305899716
H        -0.47682662180137    3.81192342597159    5.44549185638473
H         0.53984798903035    5.51753867246406    3.66194986433089
H         1.78290861086264    5.46420023893661    2.39481335559325
H        -0.61285588622087    3.58042387448378    2.70622271158452
H        -0.36218914376253    4.81238697436208    1.43565116193617
H        -0.28958460268723    3.48110978594420   -0.37465804428947
H         0.66538253723693    1.97643435296988   -0.32474368683713
H        -0.82161443183428    2.11807594805016    0.64999615856174
H         0.91914442490834    0.56491525353311    2.93415877673417
H         0.01001775306627   -0.99221827434286    0.87039231937084
H        -0.13556200847860   -1.89626850579425    2.66891896745489
H        -1.42862966280792   -0.43646928530226    2.16956909034833

