39
CSD_code = QOJXUI | q = 0 | S = 0 | Stoichiometry = C15H15O8Rh | MND = 7
Rh        2.46492384783942    1.80561152565409    0.30172362449147
O         3.15328413470528    5.60467258123782    1.81966812047717
O         3.47950970907355    4.09524427630757    3.45631408683355
O        -1.96769212233645    4.17597318780058    1.04640359119205
O        -3.15193055060423    3.17488305243940   -0.57790523249286
O        -1.09031965755115    1.60328367527468    4.15031406809725
O        -2.53731897974373    1.57692203410516    2.43190717078809
O         3.57916681224768    1.97277909427354   -2.47335585518015
O         4.17735083358674   -0.60579177087923    0.77049572775502
C         2.03365224576138    3.51166058056751    1.72446965416073
C         1.28970384810759    3.66047227209225    0.51549134876598
H         1.28008094668919    4.56178552073343   -0.08059585819966
C         0.29389187649240    2.62964893275536    0.45487239042020
C         0.50903419152215    1.76441664284252    1.55215035598415
C         1.63489382738923    2.26313801623075    2.29071939917614
H         1.91352416711636    1.91710357550510    3.27537417842850
C         2.94164231888053    4.51463235406419    2.29477139212857
C         4.33192447117519    5.02310313515814    4.10737066478529
H         5.17072089432206    5.28741557091079    3.45965815078189
H         4.68511942969370    4.52948603155646    5.00900060250785
H         3.78234732137564    5.93296031015090    4.35790848596205
C        -0.88058504708051    2.62747187458355   -0.47527815642590
H        -0.62156922847895    3.10400817933778   -1.42421856475066
H        -1.23791439778231    1.61969609312640   -0.69242235087871
C        -2.03892856697769    3.42008899173517    0.11737026346912
C        -4.33669142362108    3.86146522836867   -0.19248050864007
H        -4.93934242192604    3.21373106426937    0.44597205413500
H        -4.88144680579379    4.09515276713705   -1.10517526678534
H        -4.08287723593191    4.77489521965876    0.34825165325211
C        -0.40204406288281    0.67066788854036    2.03416189682806
H        -0.96529238905949    0.22137982181618    1.21719188240297
H         0.16530492297699   -0.09198608877514    2.56839376594114
C        -1.36399668251483    1.33029236436126    3.01486259259646
C        -3.49675532108310    2.30050280729671    3.19707639064724
H        -3.36036397972650    2.09333926015709    4.25950096312389
H        -4.47952737477478    1.97290494095547    2.86449004437618
H        -3.36298542640962    3.36813169897398    3.01415351870144
C         3.13986592744939    1.92149417885763   -1.41804121785334
C         3.51223994789295    0.31096311082716    0.60693497300235

