112
CSD_code = QOJZAQ | q = 0 | S = 0 | Stoichiometry = C60H46OP2RuS2 | MND = 6
Ru       15.71829002150927    9.73243181256284   10.99576487715526
S        15.73505442836933    7.75479598866584    9.50290536675401
S        15.37432156310498   10.47094889141369    8.54485307345099
P        13.40008339017061    9.50083645155935   11.12562754773207
P        17.96171163964775   10.06461859012323   10.54186069504077
O        15.49362817418977   12.27427887697964   12.54779308892755
C        15.60125961544271   11.29904497758752   11.93969397940534
C        15.42974938024279    8.81232378146574    8.22219801993574
C        15.17412851421334    8.32447002581322    6.94743803193759
C        14.88456871368098    7.87824748119017    5.85873387927493
C        14.53667745892150    7.35501238423165    4.60108429263039
C        14.54916819918845    5.97312564135789    4.39097619787958
H        14.83843079261424    5.31966987505257    5.20096938819039
C        14.19513800076298    5.46097721426637    3.15878756880796
H        14.20590314292959    4.39278517360695    2.99772842133318
C        13.82616429515472    6.31254554236474    2.12826264206618
H        13.54964627140984    5.90708318905802    1.16629802973145
C        13.81106054961974    7.68413863732650    2.33223556257683
H        13.52272424906859    8.34546420280694    1.52816222529313
C        14.16311329256515    8.20901396034164    3.55979541473867
H        14.15398309486472    9.27565234127252    3.72964935678672
C        16.13970447910755    8.66505138398395   12.74668477536714
C        16.30151232156723    9.18039012545790   13.96947350053507
H        16.23268106422591   10.25297494751572   14.12467386872965
C        16.58638320461313    8.43680048317156   15.19895727007931
C        17.38222946274215    9.03197663962300   16.17850167534541
H        17.77545764883926   10.02325767304498   16.00377560275672
C        17.68128393926428    8.36936968054649   17.35256546578138
H        18.30977398246127    8.84335002535014   18.09369474453519
C        17.17263577088363    7.10205928576385   17.58461132130388
H        17.40370954798815    6.58239268231430   18.50322010762302
C        16.35436782674311    6.51286553192888   16.63527168946402
H        15.93634702054970    5.53266060946389   16.81709820300127
C        16.06167933019596    7.17103555526856   15.45595817111152
H        15.40296075545998    6.70999747597926   14.73636525453354
C        16.38761422434657    7.24312396211808   12.49766603961678
C        17.68051501239771    6.73126421378634   12.64006073625153
H        18.47000189403320    7.39058592496529   12.97459594129333
C        17.94698639998634    5.40161516652020   12.37401606857595
H        18.95502780758099    5.02577734007243   12.48468530720595
C        16.93085146675430    4.55038875107675   11.97186853366819
H        17.14197178227018    3.51180506420786   11.76180439885987
C        15.63919520605923    5.03640201299371   11.85360904786057
H        14.83707190650589    4.37348691649086   11.55921367190163
C        15.37106966779238    6.36609510741768   12.11274149480737
H        14.35680104063341    6.74086227497643   12.05003195178524
C        12.67243928344194    8.64154779115803   12.55800202693770
C        13.12770434022253    9.09121188233998   13.79635018259011
H        13.82791061538191    9.91566670635996   13.82411881846633
C        12.69122322194521    8.49137475767207   14.96069208236314
H        13.06129439467158    8.83415570935933   15.91533391493245
C        11.78595211660522    7.44303258685211   14.89817834460780
H        11.45095940339542    6.96304971665600   15.80575753469198
C        11.30313281482811    7.01712709406646   13.67236555906633
H        10.58160256184337    6.21410137945474   13.62439531598097
C        11.74044920977580    7.61221276968703   12.50061756983096
H        11.34992078589790    7.27770799720689   11.54977655733877
C        12.59690419256252    8.75376727348381    9.66350649985123
C        12.70795460625438    7.38125705588243    9.43698499169859
H        13.18616195042384    6.74706964782299   10.17051803326578
C        12.23480228786333    6.82583901920000    8.26307556821768
H        12.33187248998625    5.76270200841456    8.09827236783730
C        11.65968082462851    7.63069085606240    7.29391181406303
H        11.30683280887506    7.19711653119593    6.36966759239400
C        11.54958530189929    8.99342987127554    7.50943956013684
H        11.10818032183361    9.62745802262663    6.75450202332698
C        12.01741111474451    9.55534753426291    8.68388361109264
H        11.94251153880163   10.62314726712529    8.83380986721858
C        12.51023591630170   11.09371747751461   11.23606311725213
C        11.29740337512434   11.20118223331008   11.90997651079080
H        10.87082573302076   10.33605569307666   12.39735297219226
C        10.63765349257763   12.41566163407494   11.96351737410250
H         9.69959482011990   12.49076935104138   12.49410504551962
C        11.17400557835490   13.53103122574272   11.34195226187964
H        10.65764579996018   14.47836584118624   11.39058373227269
C        12.37237697745011   13.42765342515059   10.65545870617832
H        12.79199509069168   14.29200040432887   10.16200533580767
C        13.03587554695066   12.21612043299384   10.60214249667420
H        13.96505483653404   12.13410227606228   10.05218536745486
C        18.58914703786445    9.06417386023860    9.15663571078677
C        18.73925309888820    7.68912494319013    9.34210323573930
H        18.55987150108783    7.25793170201761   10.31966454990075
C        19.07855784151298    6.87850307375551    8.27562880743523
H        19.19408057067087    5.81528976934078    8.42798508892640
C        19.24050358109504    7.42478812299153    7.01213084021743
H        19.48982452387520    6.78803524671923    6.17599210473662
C        19.06313010982636    8.78399513250823    6.81766103918386
H        19.16720475699274    9.20839419840630    5.82965347875031
C        18.73558071162043    9.60439651446000    7.88313991602862
H        18.57715551580371   10.66239709090774    7.72261948452665
C        18.45970702781243   11.74662986513296   10.03094254574683
C        17.53604225489045   12.76772606015250    9.85863617793559
H        16.48300242785876   12.56893718223124   10.00709100286848
C        17.95702213536041   14.03335241909174    9.48766568517530
H        17.23153863975942   14.82259782474676    9.35645366795599
C        19.30251643497233   14.28546909432721    9.28602205283824
H        19.63118299653467   15.27315463354548    8.99784348304030
C        20.23038020815771   13.26834441301594    9.45321084067059
H        21.28107679179364   13.46277379177140    9.29377925681538
C        19.81408002196273   12.00555423996163    9.82550059039951
H        20.53586323486168   11.21020831735564    9.95702567970801
C        19.19858189638207    9.85766504054189   11.86440170716654
C        18.99000327857534   10.65992945817155   12.98378086840667
H        18.12962544673754   11.31752269036790   12.99937255647548
C        19.87442251903667   10.62347793499012   14.04310868447870
H        19.71647604175915   11.25616580444495   14.90409184439182
C        20.97109397200292    9.77685431125699   13.99866192687250
H        21.65846832555451    9.73748362319115   14.83064193073956
C        21.18958406006376    8.98809445641671   12.88269867995594
H        22.05110239203959    8.33715343459663   12.84078043456829
C        20.31241327543952    9.03014599333652   11.81160422160438
H        20.50231646539275    8.42020241105857   10.93980664863539

