109
CSD_code = QOJZEU | q = 0 | S = 0 | Stoichiometry = C57H46OP2RuS2 | MND = 6
Ru       13.05048108510464    8.84232090737104   13.83445880437951
P        14.85669813535059   10.23072022108159   14.12199180775520
P        11.34087536483581    7.34138794521681   13.37249042427038
S        14.70503049271628    7.50718962945779   12.54179527860571
S        13.91554932756887    7.05518061421118   15.29977668249916
O        11.47279143916854   10.41529118833231   15.82588271382970
C        12.04644128592558    9.78586794930550   15.04925693584631
C        14.78153308624361    6.54924220152134   13.93823092179677
C        15.49127553658023    5.35636785648073   13.93728979236020
C        16.05456657193615    4.28368398959893   13.90240449689514
C        16.69264638813825    3.03273511298738   13.84423415917732
C        16.89683534592773    2.28628540129196   15.00799297318755
H        16.56802509345417    2.68547491947896   15.95633701657584
C        17.51505569803731    1.05391272363109   14.93506878473328
H        17.67368792617372    0.47885078093597   15.83569291674615
C        17.93175584275262    0.55224108799008   13.71129367564184
H        18.41435892438808   -0.41246254065636   13.65980405117837
C        17.72914597283254    1.28823986461985   12.55340760977334
H        18.05396889678687    0.89511055786573   11.60103528514447
C        17.11445363902608    2.52278231604305   12.61269027163363
H        16.95053233075349    3.10504635760420   11.71773082610714
C        12.39950542058157    9.94232641599230   12.27949181220039
C        11.87990158758209   10.41048755572146   11.28963813090729
C        11.19717517518641   10.95532494936966   10.17364266614205
C        10.50068473691342   12.16451038956383   10.31337075913307
C         9.76944336425339   12.64813305535390    9.24441491180305
H         9.22734951940505   13.57856979436370    9.35112815855194
C         9.71169877140436   11.96499937487850    8.03558570766777
C        10.41802714240279   10.77852974673959    7.90985495156607
H        10.38698903068095   10.23802603751776    6.97290045908631
C        11.16173853853105   10.26258799042670    8.95890703663764
C        10.56709075325233   12.91616298685143   11.60833384923924
H        11.55726144513977   13.35715433618694   11.73172296736115
H        10.40161305184944   12.24244664349922   12.44807481352083
H         9.82731568049069   13.71343033253593   11.63406506974380
C         8.92106338623021   12.51786678256329    6.88723884165435
H         8.66791672922279   11.73452608912216    6.17619997165130
H         9.50224108102899   13.27726742307511    6.36196085957443
H         8.00294864215557   12.98504433556717    7.23876996869838
C        11.89462907092485    8.96471503557026    8.79350089760817
H        12.32542924134540    8.88799508596862    7.79640640570945
H        11.20435541280563    8.13055703580324    8.92986256916803
H        12.68731848916500    8.87551827521504    9.53371891191587
C        11.93622160581652    5.77524310404310   12.66744555996514
C        12.06521597016361    4.62691203652424   13.44179830827274
H        11.69504552726544    4.61615402897932   14.45827639993599
C        12.68309166829605    3.50617772053224   12.91522110804496
H        12.78965745214388    2.61927268520018   13.52271293779593
C        13.17993375852354    3.52557059401921   11.62312898666977
H        13.66966268431105    2.65041029411573   11.22173292018171
C        13.06416153528358    4.67122311367385   10.85120138312645
H        13.46521898949433    4.69366670085708    9.84841352051509
C        12.45789908377071    5.79742622509706   11.37367472412389
H        12.39928736115561    6.71217731543325   10.79623086748878
C        10.03990033309834    7.91050995795456   12.23357309135231
C         9.47712784319390    9.14492811658676   12.55146307766569
H         9.83141683816925    9.66817047658995   13.43292225154479
C         8.50004060887800    9.69342058624984   11.74538282303870
H         8.07441995261001   10.65557590867160   11.98735624303082
C         8.07806764225386    9.01430467264742   10.61300651631154
H         7.33147326651012    9.45224986728719    9.96759254140478
C         8.61375868576669    7.77548048095732   10.30979744794793
H         8.27443491753708    7.23909120086296    9.43498182794045
C         9.59075984407727    7.21746739733800   11.11828450791937
H        10.00185167338455    6.24746672520981   10.87300463158942
C        10.29033745203396    6.75985915192167   14.74434062652628
C         9.18135383874268    5.97023659680210   14.44614182204941
H         8.96772700185227    5.71742132185279   13.41621351055008
C         8.36351813572644    5.51403432849558   15.46090971537283
H         7.50555991440560    4.90097404867942   15.22586818655084
C         8.64188790021736    5.84301386696568   16.77916838769545
H         7.99959504680731    5.48627129093378   17.57089257682370
C         9.74188377925046    6.62716095717993   17.07955113220968
H         9.96157748245029    6.88364291081431   18.10541550350045
C        10.56524168880480    7.08565426396070   16.06534038753779
H        11.43002493735072    7.69170387068367   16.30342568616537
C        16.06948250720867    9.46559241030498   15.23621451145656
C        15.75883674822671    9.39460309272032   16.59377366861662
H        14.86667237853811    9.89103095436587   16.95878062365440
C        16.57028802979668    8.68022030191697   17.45291350384849
H        16.33073078371311    8.63152589417370   18.50520903101557
C        17.67841655189354    8.00735736797395   16.96012266175320
H        18.30459652353868    7.43714852272442   17.63055355918854
C        17.97267137449647    8.04929529708920   15.60784228758167
H        18.82271699247551    7.50624510286858   15.22061320896434
C        17.17119509276297    8.77411757297683   14.74325766506659
H        17.39068379650281    8.79502669140667   13.68327296344270
C        15.87941021574280   10.77447126640275   12.71550882466761
C        17.06321247391443   11.46380379974926   12.96901504968238
H        17.37514189252519   11.64146460760934   13.98943184276119
C        17.83782230905745   11.91175380656864   11.91703171475419
H        18.75869954475491   12.44129014596186   12.11493751066377
C        17.43417582165183   11.68460939560241   10.60975945370075
H        18.04338571397772   12.03677029158882    9.79008192696100
C        16.25147452704596   11.01169993585030   10.35653849254244
H        15.93168490050324   10.83944202458146    9.33944129612820
C        15.47237381092083   10.55745911860442   11.40647348331095
H        14.54004962175706   10.04068189500875   11.21805952262879
C        14.51276972964055   11.85926179081509   14.85786185333507
C        15.31659256491303   12.47813979109707   15.80767552749798
H        16.18761714403928   11.97252084278702   16.20197156281030
C        14.98929756820083   13.74291595038168   16.26441645495193
H        15.60995043593451   14.21910069036222   17.00988276726365
C        13.87274161897708   14.39723346235325   15.77165024831524
H        13.62203116208539   15.38270437737338   16.13592244435144
C        13.07814658699210   13.78807360195976   14.81317907678273
H        12.20786341160267   14.29763995815070   14.42657952238270
C        13.39668449929863   12.52374109057992   14.35602977648395
H        12.78682459368649   12.02803837458283   13.60757360513912

