75
CSD_code = QOKDIE | q = 0 | S = 0 | Stoichiometry = C23H44F4IrNP2 | MND = 5
Ir        2.12015994357923    1.71976650408579    3.18749823738552
H         1.83498362242063    2.24222866367520    1.78890151953823
H         1.99827774750901    3.15621621626695    3.75689862417919
P        -0.16227629803454    1.45730930926619    3.66637720410060
P         4.41576767030409    2.12574823907434    2.96803086178517
F         2.34558448343277   -0.75242000385140    0.38300335527360
F         2.85594986876897   -3.37579760075538    0.84526874056982
F         2.85212693961991   -2.82631269887762    5.32111493892398
F         2.36777907720952   -0.09410189036780    5.05096688573189
N         2.86030992313805   -3.06642187819898    3.07138205219142
C        -1.35260461966379    2.72345799907624    2.97591103302112
H        -2.34630990018558    2.50222790124082    3.37949922027489
C        -0.93031270014026    4.12471344292727    3.40716663238749
H         0.04041931254071    4.35726122541688    2.97670624329735
H        -0.85468655576557    4.21671118642394    4.48623780756687
H        -1.65618777166697    4.85545115746811    3.05381009258810
C        -1.40147307172073    2.67659661353138    1.45195047717021
H        -1.92727832535393    3.55331767671943    1.07724387097576
H        -1.92019563720089    1.79644137244349    1.08880834599237
H        -0.39033131013075    2.68498809826177    1.04812485202944
C        -0.51298786668183    1.45550868672165    5.51815480258793
H        -0.38394734734890    0.40104263258108    5.80141581998864
C        -1.90970934302663    1.90585327275009    5.94694317139245
H        -2.04464832274008    1.67159609288331    7.00276304129767
H        -2.70270271393707    1.41384948287371    5.39350338797156
H        -2.02558028846830    2.98008624593891    5.83079817119275
C         0.52515466916710    2.27041643799332    6.28757646994546
H         0.45955666448532    3.32641886801984    6.03840282893480
H         1.53392308419180    1.93725644703608    6.06688746864572
H         0.36097346717966    2.15964173284517    7.35909388591719
C        -0.85845417085832   -0.22402805545347    3.19233275695310
H        -0.19174496332603   -0.90649769610941    3.73940398288991
C        -2.28786984838406   -0.53627858898483    3.62592858341164
H        -2.99000509398651    0.19473097662660    3.23058649017419
H        -2.38519290883763   -0.58224200058300    4.70716626675107
H        -2.56614645218720   -1.51292451110952    3.23076576701031
C        -0.69794896255679   -0.50758859199998    1.69705281853567
H        -0.48989802884568   -1.56384737522942    1.53359167707071
H         0.11246673303089    0.07528296739155    1.26608372584849
H        -1.61213210307222   -0.26968288095796    1.15991354737966
C         4.94506478038921    3.88807549034963    2.60821832232806
H         6.00258277651773    3.84417546372365    2.32421575598091
C         4.80491285293974    4.82791261035462    3.80109439293105
H         5.05147006509849    5.84194607531320    3.48925920813647
H         5.47207002177845    4.56089900855091    4.61608665256399
H         3.77743122151440    4.82813502972451    4.15751197311443
C         4.12336513319399    4.44080861480983    1.44787370869295
H         3.06952082326600    4.43969200043571    1.71885665573741
H         4.24156028783559    3.84620857392039    0.54929159457925
H         4.42952487130573    5.46210850452230    1.22736828632735
C         5.33755000340348    1.14809215489470    1.65870554286960
H         5.22290941270274    0.11467878600226    2.01069144696631
C         4.66950569695203    1.23950479986881    0.28757782423609
H         5.04103284155967    2.09504884205783   -0.27075077532569
H         3.59009872129731    1.32979957634733    0.38518737358430
H         4.88752047857095    0.34697620912416   -0.29541083763046
C         6.82734731130574    1.46143941518086    1.52813763591302
H         7.30579342807642    0.67910359848401    0.94042341640679
H         7.33252564556716    1.51785996292495    2.48897710777434
H         6.97928462421735    2.40245877439416    1.00429605035804
C         5.42905751518393    1.74299860571828    4.50560603875227
H         6.33286472826932    2.36230698010401    4.43407995227402
C         4.65536910413504    2.13774157101858    5.76605585155799
H         3.94625140959451    1.35859514771350    6.03172975859138
H         4.10581824677990    3.06526460504248    5.63482830167618
H         5.33900931797780    2.25604034089724    6.60625606757540
C         5.84353625152360    0.27704346239853    4.62611949767658
H         6.31177988862420    0.11679970832275    5.59724330367362
H         6.55434996783890   -0.02406532008688    3.86174758367082
H         4.98053348862825   -0.38260680476717    4.56577112957305
C         2.37289082980098   -0.28258405972767    2.71900205026769
C         2.49161748969318   -1.18080385764326    1.65764476765919
C         2.73469592005549   -2.52921060330557    1.87651453382919
C         2.73626473814048   -2.26323992780745    4.10737985872026
C         2.50348150386407   -0.91447901587702    3.95584431005868

