147
CSD_code = QOKGAZ | q = 0 | S = 0 | Stoichiometry = C50H80CdN8O6P2 | MND = 6
C         1.99038592117864    5.31750162804340   -2.86716144308517
C         1.56503997935992    6.43289052283064   -3.59792792788287
C         1.18789660097354    6.26674593017450   -4.92290452072026
H         0.85379218200343    7.12117240139390   -5.48783838773068
C         1.22339998792943    5.02661059973376   -5.54399970459727
C         1.70373488989228    3.94937265912424   -4.82164639229986
H         1.76515925663980    2.98437374658475   -5.30404017995687
C         2.10220705107487    4.07492775316305   -3.49637636753504
C         1.59890641891688    7.81131171321962   -2.98340103616716
H         1.25973382104403    7.72637039995335   -1.95175288231456
C         3.05321861212988    8.29556916493047   -2.96284178327738
H         3.67455809041648    7.60693693157519   -2.39369211645694
H         3.11752500687810    9.27769775961198   -2.49953757537220
H         3.44797792090318    8.36501735418901   -3.97619451862229
C         0.71313471359732    8.84136220248516   -3.68198577537766
H         0.66835898755598    9.74470999159191   -3.07715129607328
H        -0.29958584276996    8.46343373813898   -3.80418612305281
H         1.11011609936545    9.11692230318699   -4.65733604317316
C         0.77690643235013    4.85690782519793   -6.97546997888567
H         0.87739865135673    3.79814189454849   -7.24054840562014
C        -0.69307618159905    5.24927494617257   -7.13518387457370
H        -1.02610818399871    5.05930153107797   -8.15341826613398
H        -0.83711821116457    6.30479613779802   -6.91868287202663
H        -1.31419741714795    4.67208413763343   -6.45366784651658
C         1.66141556125841    5.66959317341852   -7.92358655590276
H         1.35739586533795    5.50557864319798   -8.95523912879120
H         2.70280567628412    5.37389524771616   -7.81737512429258
H         1.58310041972450    6.73235460825446   -7.70861599215336
C         2.64840490064694    2.85614168990173   -2.79171670863565
H         2.97266312199971    3.14195118529191   -1.79425074789393
C         1.56137227088001    1.78851043065684   -2.65031298138693
H         1.95100789993353    0.92866416215957   -2.10987135201538
H         1.21022723034405    1.45296561622186   -3.62398769654567
H         0.71656940671403    2.18855107519994   -2.09569492854835
C         3.86988494019641    2.28355074235938   -3.51567749738552
H         4.24630684136101    1.42302267854182   -2.96668754389403
H         4.66707229392087    3.02109934375540   -3.56852647337995
H         3.62332423312317    1.96116469269830   -4.52527907190080
C         2.81379372352014    5.11290124330585    2.59729402037624
H         2.79313068786813    5.16977724546468    1.51486156142132
H         2.15734538273487    5.88051551987135    3.00541913473603
H         2.43791430489281    4.14147011279355    2.91434394328698
C         4.20335406459133    5.31635788691629    3.07753219764716
C         4.65282529089389    5.27854384474443    4.40679556929115
H         4.06546206268393    5.08129626868903    5.28034480260092
C         6.00556340490414    5.54681291597408    4.35184671919491
C         7.01587522212221    5.65107956533154    5.43369675106992
H         7.94084602518494    5.15812540582504    5.14345457677973
H         6.63300513061568    5.19457710524537    6.34283754974240
H         7.24981654365280    6.69509147015819    5.64075516695147
C         4.39234654958821    2.24856256373408    0.69653323621911
H         3.85399816079327    3.14347075892283    0.40047365806230
H         4.37173158680927    2.18050093410797    1.78469099924845
H         3.89879231512225    1.37053996546981    0.28719196261748
C         5.79803397187030    2.32627032705748    0.22241180323216
C         6.65705943622961    1.26362420878829   -0.09196260002487
H         6.42247545801557    0.21843424919847   -0.07885400042849
C         7.86815528581664    1.84915290575184   -0.40915694698782
C         9.17720527138781    1.27172973789067   -0.80538787611293
H         9.97138242743471    1.96517853406508   -0.53946141699059
H         9.21141523973332    1.10280488865740   -1.88168976340960
H         9.34183752783659    0.31956465660033   -0.30691719559589
N         5.22023212028000    5.58894497269406    2.26880004672376
N         6.29775862563913    5.72881262725548    3.05229881565342
H         7.18437593139253    5.95118253679258    2.60212749732601
N         6.44854449810733    3.47839754040468    0.09094753365477
N         7.69020104655579    3.17484991303449   -0.30925461341821
H         8.44841601253005    3.86811661527945   -0.27941078909664
O         3.86524729817058    5.10806293264678   -0.90633727333380
O         1.53854513020962    4.15206149801115   -0.46375147146193
H         0.76859375977153    4.51675306085776   -0.03076939848980
O         1.89786463500622    6.61885027129778   -0.33484611876287
P         2.39192706511995    5.41238799768487   -1.07056113494963
Cd        5.90267717444963    5.62817580962190   -0.00015263722009
C         9.81504817993982    5.94125431359429    2.86703756313042
C        10.24111696864654    4.82650531854531    3.59836364328950
C        10.61829141755299    4.99361066501720    4.92321311496161
H        10.95297031774763    4.13971346729825    5.48860169621279
C        10.58206189984168    6.23406232533401    5.54364590035032
C        10.10092993420150    7.31060197072058    4.82078082501135
H        10.03886297309984    8.27580718670455    5.30267250031658
C         9.70243452425117    7.18408095976389    3.49560922680193
C        10.20794568088728    3.44772389509527    2.98460052085003
H        10.54716477271219    3.53225011305887    1.95293047818870
C         8.75385862242906    2.96276859928916    2.96419630971464
H         8.13224701019190    3.65068457662692    2.39448277102623
H         8.69008846286255    1.98028528151749    2.50157170829968
H         8.35902805777255    2.89384912612509    3.97755511065165
C        11.09409811807067    2.41847134304082    3.68386646143951
H        11.13926464162667    1.51475769274434    3.07960731295165
H        12.10666472740524    2.79686315499773    3.80590535014141
H        10.69713792157689    2.14337917560656    4.65935753588102
C        11.02856243075435    6.40481047794207    6.97499027852761
H        10.92737488721178    7.46364756086637    7.23951835883487
C        12.49881767924958    6.01351562048644    7.13482771329987
H        12.83176581791565    6.20422400549899    8.15295337676615
H        12.64358272139413    4.95798656784416    6.91884382454824
H        13.11951348559224    6.59079761872902    6.45300218277674
C        10.14466209610949    5.59201478033328    7.92357686558625
H        10.44856572275128    5.75683108675523    8.95513605567655
H         9.10305823862837    5.88690254106570    7.81719667302467
H        10.22373701332755    4.52918764553214    7.70920648205741
C         9.15527423144495    8.40207120493274    2.79034031673825
H         8.83105244461860    8.11546004476773    1.79308813515410
C        10.24150673024542    9.47040917264530    2.64817681254109
H         9.85112325232283   10.32974994011807    2.10747083763158
H        10.59271463083544    9.80662362069424    3.62160006838725
H        11.08641722308414    9.07070046394741    2.09348655219008
C         7.93350615586519    8.97416555392516    3.51421365443000
H         7.55609944927941    9.83386407025061    2.96460313540100
H         7.13704392364377    8.23590148799390    3.56794332477635
H         8.18007111236740    9.29762733653411    4.52347051633678
C         8.99175760888708    6.14274396455758   -2.59786627212498
H         9.01298270464040    6.08361041160678   -1.51556845563347
H         9.64822254594609    5.37620340149736   -3.00797806329968
H         9.36721559702340    7.11496296409459   -2.91300306531029
C         7.60203572174589    5.93990790437627   -3.07791272504004
C         7.15243472343359    5.97833587454638   -4.40713319046831
H         7.73974473605876    6.17577781288032   -5.28067501043818
C         5.79965549264122    5.71037684667484   -4.35211776131369
C         4.78915423066163    5.60694706639175   -5.43386862494316
H         3.86575096569546    6.10361083281065   -5.14481510709764
H         5.17364239912177    6.06030425470459   -6.34396408606641
H         4.55178030923282    4.56324587773984   -5.63860189170113
C         7.41325570325148    9.00738540772549   -0.69836691778072
H         7.95183569037588    8.11241261249903   -0.40291200681136
H         7.43269028378100    9.07546810463339   -1.78654905553266
H         7.90735576364860    9.88534510886312   -0.28954721973733
C         6.00806605530055    8.92984743625467   -0.22274522045371
C         5.14963832681830    9.99258161713596    0.09297080113738
H         5.38449011186519   11.03771569916718    0.08010090873603
C         3.93869508375784    9.40723559049819    0.41108259872561
C         2.63019125003018    9.98485358693336    0.80882654786502
H         1.83549272990423    9.29207818254136    0.54269387314454
H         2.59679472490437   10.15262089177030    1.88533705452578
H         2.46567767411585   10.93763467588803    0.31149862221957
N         6.58518973108812    5.66731255775250   -2.26916689396015
N         5.50750738216604    5.52799708295034   -3.05260665161567
H         4.62093407653224    5.30552038224799   -2.60243325881999
N         5.35737553017186    7.77783787214694   -0.09115188671975
N         4.11619534322697    8.08152948865777    0.31043048544025
H         3.35774937281824    7.38851268929197    0.28070812598807
O         7.93993090149180    6.14851482179734    0.90624444838450
O        10.26604012019665    7.10565751609398    0.46293969327111
H        11.03622712010191    6.74119219779198    0.03018701539521
O         9.90812721329965    4.63860070105430    0.33540771831862
P         9.41343547843397    5.84520394658042    1.07053508841457

