105
CSD_code = QOKKAD | q = 0 | S = 0 | Stoichiometry = C56H22F20FeN4P2 | MND = 6
Fe        3.72732754152645   -0.00024608860641   12.51689066770304
P         4.29178849562840   -1.85427824578803   11.52185184684982
F         6.28904252138420    0.51727499160256   17.46359218442062
F         7.49237544091007   -0.49474880066195   19.65898713228640
F         7.77262536947005   -3.19467953291538   19.94624654129472
F         6.83818958981675   -4.86668925169555   18.00227793759288
F         5.63942968320281   -3.84519631358715   15.79849384117608
F         0.12031133991025   -3.89227425578447   12.06812746020670
F        -2.09955572347585   -5.34931191965339   12.63704153648542
F        -3.75337697763016   -4.57284881377187   14.66282389547039
F        -3.17500938707992   -2.32623356687215   16.09989153205627
F        -0.97271895147096   -0.86927229393968   15.50970279216714
N         3.15430312419819   -1.09042543130687   14.10170204124798
N         5.54898181979284    0.20432613920747   13.32674448132358
C         1.92666615073786   -1.63105975707978   14.32013599608099
C         1.89146701732320   -2.29939849844518   15.58998151848347
H         1.04362824840534   -2.80568012012072   16.00718125679556
C         3.11769089223236   -2.15171647181619   16.13598001210701
H         3.45681789356758   -2.49969449190195   17.09177494271960
C         3.90439298262883   -1.41659928309156   15.18585962186333
C         5.24709761072628   -1.10358479232897   15.37212261625967
C         6.00206893187136   -0.34295688288119   14.48556269548502
C         7.38968264729660   -0.02722094251137   14.67900953791615
H         8.00035669214342   -0.36021592712249   15.49480912125556
C         7.75675412254766    0.75165253988416   13.63792406546307
H         8.72210229246416    1.17542535834618   13.44039475141355
C         6.59797014865714    0.88927808450227   12.80111120751613
C         0.85373738689916   -1.58348198075846   13.43811496717612
C         5.91625655036023   -1.63792470880071   16.57822546248293
C         6.41384117588531   -0.80766147652534   17.57980962646013
C         7.03568664701786   -1.31912134556824   18.71398562178907
C         7.17811232849795   -2.69538409515161   18.86351786927365
C         6.69748540766527   -3.54642527638101   17.87200470647204
C         6.07616705114485   -3.01270285844592   16.74857340318557
C        -0.36782258158929   -2.35029698940632   13.77824787450390
C        -0.68851292658775   -3.49856245334053   13.05628521648183
C        -1.82075055426490   -4.25280687082913   13.34278739043931
C        -2.66574095134070   -3.85877967651624   14.37720932834982
C        -2.36807561260016   -2.71380575843390   15.11016319318273
C        -1.22948098227957   -1.97518362551632   14.80428033530386
C         4.72174254499019   -1.75343104755552    9.76977103810174
C         6.00724558844973   -1.36210717265148    9.40497993647119
H         6.75747772740155   -1.21667184779201   10.17065461739106
C         6.31879222259804   -1.16355570522364    8.07366710562263
H         7.31694056349257   -0.86203246682084    7.79625074937733
C         5.34795180229457   -1.34730628182997    7.10160559784530
H         5.59216668267653   -1.19147230420115    6.06133726685871
C         4.06680958410448   -1.73419807606678    7.46033393624817
H         3.31276608032442   -1.88417082539340    6.70258964102890
C         3.74795012350372   -1.92959630452161    8.79177765842315
H         2.74613015487579   -2.22097837535389    9.07669366842463
H         3.38102983268950   -2.90600185163616   11.47700220622106
H         5.35723401467003   -2.62844389538211   11.98050433124691
P         3.16352366420705    1.85394930068930   13.51243530818901
F         1.16552653906214   -0.51695302266010    7.57051818947261
F        -0.03783087042648    0.49528512226552    5.37521572111802
F        -0.31810488058783    3.19524264338468    5.08823878826073
F         0.61632137491480    4.86706713372474    7.03237239857842
F         1.81510059561731    3.84534856530029    9.23605338871238
F         7.33451399542682    3.89219221638413   12.96583623388171
F         9.55447070643975    5.34904528872162   12.39679908325092
F        11.20820684100206    4.57235527413121   10.37104195118914
F        10.62964763847068    2.32570546348414    8.93409506835323
F         8.42727154732762    0.86893586944811    9.52439337199671
N         4.30023238087241    1.09058307864934   10.93254264733913
N         1.90546048318446   -0.20413008531210   11.70751015623916
C         5.52792573819293    1.63104805874402   10.71404165526271
C         5.56315350103235    2.29934488315937    9.44417708362598
H         6.41104996544153    2.80547861337207    9.02691350079664
C         4.33689041104818    2.15176769558480    8.89823193855223
H         3.99777712535175    2.49970346841780    7.94241813032641
C         3.55014599900553    1.41674867169346    9.84838911992987
C         2.20742564847099    1.10375310725651    9.66213794390172
C         1.45241795963401    0.34314733318243   10.54868750513327
C         0.06483304438987    0.02732303626450   10.35521941886214
H        -0.54581943592294    0.36027706574599    9.53939533593157
C        -0.30220358114651   -0.75164617854919   11.39626229436471
H        -1.26750116417303   -1.17555372731507   11.59373635362638
C         0.85657557307633   -0.88925837145901   12.23307770856511
C         6.60088161048051    1.58337613970578   11.59600550239165
C         1.53827809532482    1.63816931657806    8.45608072087745
C         1.04071457846957    0.80799389630283    7.45442058932459
C         0.41886095318723    1.31956277565061    6.32030021976436
C         0.27642021823364    2.69584108584031    6.17091353266566
C         0.75704091410342    3.54679102144902    7.16250961036403
C         1.37836340253389    3.01295912265593    8.28588147556499
C         7.82250827453078    2.35007193877111   11.25580549934678
C         8.14330029080832    3.49835552295393   11.97769861051114
C         9.27558214598102    4.25251179196641   11.69112900355736
C        10.12052816220370    3.85837232241211   10.65671402617424
C         9.82276711207836    2.71338085629985    9.92382684439975
C         8.68412344762660    1.97485237619266   10.22977150111397
C         2.73309657226729    1.75340298993032   15.26440481389046
C         1.44758520078947    1.36185021589223   15.62906332271504
H         0.69740874770304    1.21651175724212   14.86327615733573
C         1.13584835488252    1.16342296453929   16.96035690753038
H         0.13769236977624    0.86178459712053   17.23769276593020
C         2.10652835584731    1.34744063103634   17.93250570960413
H         1.86226164072389    1.19134530849238   18.97272202665951
C         3.38765621847433    1.73447996805546   17.57390212200802
H         4.14169891117633    1.88421997148609   18.33171195998587
C         3.70666448411699    1.92987995040553   16.24249373016633
H         4.70853949640986    2.22113447141269   15.95769253722189
H         4.07369006268119    2.90620929058821   13.55696736093302
H         2.09780020202070    2.62779705114163   13.05381917249884

