34
CSD_code = QOKMUY | q = 0 | S = 0 | Stoichiometry = C13H13CrNO5S | MND = 6
Cr        2.24845837674765    1.70678189845394    2.21298817119897
C         0.93978093780702    3.01745245803650    2.48375485047026
O         0.00256857445355    3.64503478235892    2.71002554407994
C         2.23749461429956    1.85392692426432    0.34684462633277
O         2.13449435824007    1.76137869972469   -0.79528035367760
C         3.32307294546777    0.19555909917697    2.10229063348909
O         3.81126233235029   -0.85254454709715    2.12717513876680
C         2.15913609333081    1.27558057028278    4.01343740185900
O         2.01302699213040    0.81366917420412    5.06604284108284
C         0.84780265257448    0.52348603124477    2.03137294559549
O        -0.01120133245127   -0.24316778871866    1.95318709796100
C         3.90787315731263    3.16024144487365    2.40194411724273
C         4.13748457838090    4.36536252544060    1.87764819746333
C         3.16718229492166    5.03756519305997    0.95335707920945
C         5.36822905082692    5.20087339188032    2.14290031676006
N         4.88945108750587    2.62081916517044    3.26955301391014
C         5.91127960862521    1.90784219393426    2.89171248952828
C         6.22847044138014    1.67038037502073    1.46947493391607
S         6.75108746929017    1.10505920905212    4.18151839535740
C         5.47053619697562    1.64158763636213    5.37862447583995
C         4.78583385772876    2.82184111557294    4.70787968747972
H         2.24686950254868    4.46735995269111    0.86136408176682
H         2.93033543547961    6.03557808834196    1.32048698459627
H         3.61019993765661    5.14670999383648   -0.03673288851252
H         6.13178918199134    4.66463724268347    2.70211851692258
H         5.80188848196095    5.52951375426331    1.19907850152887
H         5.09544964106135    6.09512640054536    2.70373470384157
H         5.31327084109314    1.35452190732849    0.95579657305728
H         6.56556117455145    2.58855909941428    0.98931728313801
H         6.99468579967705    0.90776479220531    1.36722175610018
H         5.94842513571885    1.90057129718484    6.31929555509489
H         4.78990085704128    0.80271727968499    5.52815300442637
H         3.73588410815327    2.90289949557449    4.99331537266004
H         5.28891561516417    3.76551114396881    4.95439895139706

