39
CSD_code = QOKMOS | q = 0 | S = 0 | Stoichiometry = C17H15CrNO5 | MND = 6
Cr        2.39934235618761    1.27299146209836    3.36460495470625
C         3.16449718311464    1.31091451243111    5.06809342646219
O         3.78214229788689    1.24745046791298    6.03698052519117
C         1.09237717902864   -0.01074425166236    3.74181288768243
O         0.38686135388785   -0.91584365680803    3.81114693615973
C         1.87514722681504    1.07236746223810    1.58328591385143
O         1.77707216525929    0.75801993746205    0.47843887508397
C         3.75927183139123    2.37852277845138    2.74390878250162
O         4.65723766647824    2.92394988980261    2.26504491770469
C         3.50264911983311   -0.16763476876918    3.03217591489293
O         4.19788888426175   -1.05899594628785    2.80361353236673
C         1.07184715311673    2.92841063991820    3.95746897605053
C         0.17903009828262    3.09522963054353    4.93299629563407
C        -0.62842669768620    4.35930661964751    5.12028791787635
C        -0.15071512811346    2.02260901675546    5.92744765242219
N         1.41175484251107    4.00321808765411    3.12955399829867
C         2.35771787894913    4.93829907847377    3.71995852856685
C         0.98994773534073    4.25153972469177    1.91307340731677
C         0.08822987337300    3.47060240686363    1.12663019744173
C         0.00605832680541    3.75877985462036   -0.24786907943264
C        -0.77830881593099    2.99949337634763   -1.08526569687191
C        -1.51190076596273    1.93411468377954   -0.57859950965166
C        -1.46692006930990    1.65388604534058    0.77595786470821
C        -0.68274073337162    2.40933358159842    1.62790134650824
H        -0.62108524823647    4.98629223812418    4.23102961673229
H        -1.66170133562751    4.10630833860631    5.35067562855824
H        -0.23622149587850    4.93606493183782    5.95856302180378
H         0.58941587819873    1.22644633664036    5.91299530863705
H        -0.19136511827711    2.44934829087793    6.92875653870348
H        -1.12965521384079    1.59240483225423    5.71257984939518
H         3.12025140166975    5.23925466757982    3.00135579574508
H         1.82586223707589    5.82938064636250    4.06086480433211
H         2.83939491538033    4.46895979989531    4.57683562259000
H         1.48796341807981    5.06481759985580    1.39779095187661
H         0.58629841463214    4.57724518773222   -0.64936963519511
H        -0.81677462416990    3.22743112464107   -2.14001182497648
H        -2.11874422152957    1.33333337770852   -1.23871428214277
H        -2.04516696349785    0.83473854625858    1.17662935366619
H        -0.68943300605789    2.19505344855248    2.68377068487526

