24
CSD_code = QOKMIM | q = 0 | S = 0 | Stoichiometry = C9H7NO5SW | MND = 6
W         7.11195346103750    1.65292947272889    1.64586789023767
C         8.74688551181417    1.65629132044117    2.79369147867492
O         9.72464044045588    1.70548967893379    3.38157919576199
C         7.78723807897800    0.06042252116365    0.64630931713345
O         8.21428753609960   -0.79931919698034    0.02788475923196
C         5.54442626103436    1.68863646340702    0.40557010658176
O         4.73900397471398    1.75843888140136   -0.40148583522607
C         6.50960863135026    3.29832969387364    2.60848674163149
O         6.25995446140007    4.29809872432493    3.10152106410061
C         8.05164776594621    2.82638004267542    0.36272607953340
O         8.59801221895776    3.50368568303077   -0.37988465468687
N         6.09167012912008    0.25642293359874    3.13195338912159
C         6.88800083474902   -0.82899813860874    3.66081333721491
H         7.25794061601691   -1.43212828657486    2.82439668409834
H         7.75637998879229   -0.40412185666416    4.17672345658722
C         6.06125945142741   -1.69990886267039    4.62796967452673
H         6.47712398816667   -1.71824826012090    5.63373456520715
H         5.94181369724146   -2.72196565377233    4.27245115839894
S         4.41356990972103   -0.93104970518322    4.70758379847447
C         4.89689631065225    0.30487162045300    3.56573671850832
C         3.88549420600115    1.31832778569154    3.18051543171722
H         2.97157655599024    1.17649958674272    3.75190989718705
H         3.65658023707894    1.23107817040973    2.11845770140600
H         4.27123573325462    2.32193738169850    3.35828804457755

