88
CSD_code = QOKPOV | q = 1 | S = 0 | Stoichiometry = C38H44Cl2MoN3(1+) | MND = 10
Mo       10.26072897447441   -2.06026222848327    3.84576170626191
N         7.27369682104110   -1.26044560096203    4.55596677035381
N        12.62554297978043   -1.71145344298623    1.75535887021198
C         8.39544374601818   -1.53917470728082    4.41205191462164
C        11.88936506048575   -1.91573074296487    2.63557130484052
N        10.34722139638744    0.04200936611451    3.36982872627892
C        10.76888079945777   -0.18834449018970    4.54217350408740
C        11.14028391511475    0.77732721644336    5.59516955321706
H        12.22339931027927    0.90115405237346    5.65875473857548
H        10.76604431117940    0.44988593260385    6.56558674704850
C        10.93418618283873   -4.21728695136349    3.88564520131390
C        11.71800587158048   -3.51948143924224    4.87842809702655
C        10.83427912972627   -3.08341518256217    5.90314996983232
C         9.52147116071060   -3.54208019863122    5.58405128220790
C         9.58075256719170   -4.22947774498295    4.33411989880156
C        11.45717637594050   -5.08461323261377    2.78182461641142
H        11.50323399518655   -6.12254280503526    3.11736896055539
H        12.45496567529188   -4.78165359494959    2.47117983468603
H        10.79977400430038   -5.03773802065577    1.91428339253883
C        13.20830649068427   -3.53148786848308    4.99418847606230
H        13.50677257432123   -4.32807612163790    5.67856113374310
H        13.58712006842613   -2.59069530484900    5.39010007496342
H        13.67963936720244   -3.72003045635996    4.03361650372640
C        11.25264612645945   -2.51868409645237    7.22424782560537
H        11.45598764841296   -3.33656597255436    7.91838247531331
H        10.47065613185947   -1.90007058929139    7.65880696207900
H        12.15821582873509   -1.92405715144594    7.13083166448972
C         8.37933092799883   -3.55961657353056    6.54726179897281
H         8.50419032314984   -4.41233474011631    7.21810313671083
H         7.42206483209255   -3.66669575926676    6.04296806827918
H         8.35230555757076   -2.65752041402871    7.15521742867655
C         8.49175057618034   -5.05389495541192    3.72380146255898
H         8.69150263000662   -6.11275767852673    3.89759090802847
H         8.43865223804706   -4.89105796144484    2.64771857731062
H         7.52316084813686   -4.81182577886688    4.15462305024362
C         5.97540394836970   -0.90228902686299    4.70944638230445
C         5.00141755064529   -1.50469114281342    3.90168157207904
C         3.68525318606100   -1.10344900559724    4.07896617937807
H         2.91417856792897   -1.55142800471278    3.47126539835816
C         3.35471652252937   -0.14043445518436    5.01604280778621
H         2.32493395110079    0.15740714333405    5.13710514866206
C         4.33587420552022    0.44985976888638    5.79722721482000
H         4.06759337890895    1.20479968624684    6.52004033582494
C         5.66311575988379    0.08230462476539    5.65970146336171
C         5.36394683089360   -2.55391445962191    2.90021381751239
H         4.66947989595313   -2.53354784004767    2.06473304682422
H         5.30082101940248   -3.54273400708555    3.35703506010401
H         6.37542860178867   -2.42056138966422    2.52084249151214
C         6.74796998414376    0.69892045374233    6.48629015197102
H         7.54582831156156    1.09085696598147    5.85443620270744
H         7.18778981686635   -0.04433337316613    7.15238993341866
H         6.35250378285271    1.50982951299312    7.09062790585539
C        10.39762148704046    1.13888796925449    2.50481167722245
C        11.62405938665434    1.77568442616174    2.24581097709681
C        11.65016975360689    2.81295626236331    1.32222844208246
H        12.59112761406980    3.30235760739692    1.12115687824797
C        10.50574643211752    3.22218267442298    0.66676436461271
H        10.54958507178325    4.03122740386469   -0.04502272554878
C         9.30315207826692    2.59013629623169    0.92883263963405
H         8.40514680042577    2.90921362598167    0.42252487894413
C         9.23064612600285    1.54649572512544    1.83669122130583
C         7.92266684174344    0.88196105926363    2.12711914364155
H         7.64343816331981    1.03624754363882    3.16964501610169
H         7.99556251265987   -0.19049254815348    1.94132624780602
H         7.13852023746305    1.29165034095763    1.49696373571010
C        12.91109865809500    1.39038497624247    2.91306492622172
H        13.72525717278432    1.42729998009786    2.19145626533227
H        12.87106462957431    0.39131278565321    3.34332708597014
H        13.14200194889396    2.10240874435131    3.70610267885680
C        13.42564585034453   -1.40449592212684    0.70405550939728
C        14.81347599356164   -1.56174596543124    0.82355127911833
C        15.60153472240587   -1.22245763312605   -0.26387898871726
H        16.67222311644638   -1.33884154362206   -0.19604637478654
C        15.03042580595664   -0.73668843172307   -1.42824636689777
H        15.65971283396071   -0.47666713110522   -2.26498379604022
C        13.65819095054091   -0.58138167609559   -1.52424833899602
H        13.22194266033385   -0.19995425861642   -2.43448776446497
C        12.82609973976491   -0.91193547256721   -0.46636304168184
C        11.34584184547709   -0.74599974357869   -0.54898724369122
H        10.83664083004580   -1.68467374734259   -0.33051169841968
H        11.05198243526011   -0.41190467296321   -1.53941004031077
H        10.99865981902662   -0.01350069546439    0.18149267410061
C        15.41570587820146   -2.09570257689608    2.08579599658746
H        15.25217543501900   -3.17188183959257    2.15542056859019
H        14.96958913734490   -1.62606068109351    2.96155035121317
H        16.48722486705304   -1.91860669902048    2.09982267722487
Cl        9.17487573987740   -2.46637341776312    1.64932564012737
Cl       10.43577766431143    2.41655702176622    5.29620575619425

