75
CSD_code = QOKPUC | q = 1 | S = 0 | Stoichiometry = C21H47BO5Y(1+) | MND = 9
Y         9.23733298810471   10.79110113925057   18.64873509602560
O         6.96740154105223   10.46870578096774   17.22827474684590
O         9.90906013513881   11.32927523881693   16.02068002897360
O        11.88902673848199   10.96176092450236   18.49669306190735
O        10.22245708431155   11.02631343197941   21.20891361431979
O         7.19021422036991   10.31731593431147   20.31064603563400
B         9.57044335491271    8.24824489888004   18.46488820414275
H         8.60798392426845    7.55215322104142   18.45283612194612
H         9.61508441259874    8.85867778921783   19.57887754190410
H         9.50721632065733    9.04041446108993   17.46488980595582
H        10.57880211408768    7.63647785575620   18.35447748508259
C         8.87594302156007   13.04940037026167   18.79466949357954
H         8.39361854797375   13.36286972017411   19.72853123176898
H         8.23402110383686   13.44964405735787   18.00051786037938
H         9.79649519047314   13.64442089523940   18.74084113205551
C         5.84521374263302   11.34893720012026   17.25864981883828
H         5.91796424418167   12.07340475189998   16.43493333234461
H         5.86072929998994   11.88058477319521   18.21060028343434
C         4.62849890426124   10.44449986280020   17.06744636510293
H         3.77910916271251   10.98345120590084   16.65618637979416
H         4.33305275458492   10.00564273606020   18.01983671522678
C         5.16173956013150    9.36391588187320   16.11570370882598
H         4.85155375396107    8.36929107160159   16.42800505668633
H         4.80784494092930    9.52442350736745   15.09922561147133
C         6.69237857288028    9.52616333959649   16.18657966297772
H         7.21188281780815    8.59905380481954   16.43418568432325
H         7.08346021248544    9.91358145448297   15.23647192689952
C         9.46152844315011   12.44822964194072   15.23521902833659
H         9.79231685741837   13.36276892535067   15.73940597547610
H         8.36758540739206   12.44567403234970   15.19996475723753
C        10.08720162809024   12.31135535440009   13.84358229488406
H         9.38968697758656   11.83564403971260   13.15438247478934
H        10.37897819862811   13.27408874359541   13.43248730187837
C        11.27723733247363   11.39030911615773   14.10445885705632
H        12.12502963357272   11.95989059900422   14.48701597871766
H        11.58923100645456   10.83915546865538   13.22170652148383
C        10.71028657141999   10.48132177156873   15.18786785313570
H        10.07937306661692    9.69903870811069   14.74406869483780
H        11.46780921645441   10.01129453448845   15.81689975377045
C        12.63628595309357   12.04575162204793   17.93292820268874
H        12.80904923730505   12.81567394122359   18.69869827293562
H        12.04311663696577   12.47396720803386   17.12381092489686
C        13.95881614713151   11.43658789098730   17.48464996714242
H        13.83250339963329   10.90305590029070   16.54206932153149
H        14.74327108099036   12.17973866760026   17.36983261525550
C        14.22854000720030   10.45511616595820   18.62389678294633
H        14.86321527674995    9.62586007556964   18.32328784982002
H        14.70391196642154   10.97108081492635   19.45822428121296
C        12.82062335555871    9.98760575806982   19.00868211965790
H        12.57182262459956    9.02268308015525   18.55565213617112
H        12.69506962971793    9.90880740514566   20.09324789209650
C        10.90372865013210   12.19355457484052   21.70134674199209
H        10.18088792395325   13.01656225554285   21.75713324541602
H        11.68896238071259   12.46457932188592   20.99098654896518
C        11.44607080074240   11.84295965853142   23.08550314443231
H        12.43953259175393   11.40025277701164   23.00952331346421
H        11.49777016738173   12.71121741775581   23.73679872225723
C        10.43866598665931   10.79815078157983   23.55767042885250
H         9.53369916368126   11.28273786057285   23.92581769769499
H        10.83111561502790   10.14583535058156   24.33284175309936
C        10.15702991335635   10.04943583403899   22.25975448696563
H        10.91896034255247    9.27876991930377   22.08180783583174
H         9.17147444067864    9.58068178641778   22.23207081812326
C         6.66849562958258   11.19676508231173   21.31977675651038
H         6.07600090013077   11.98277523889464   20.83247535939860
H         7.50878738892467   11.66121282964835   21.84120601784326
C         5.78765922291439   10.34319000712227   22.22666215999675
H         6.38716503736344    9.84787267906592   22.99109002447012
H         5.00957687725695   10.92618612363468   22.71192694845914
C         5.24078755655133    9.31904794236090   21.23579006296145
H         4.41925201983348    9.75209109722490   20.66404376854788
H         4.89510205604923    8.40595792676223   21.71256631383791
C         6.45509147508514    9.07955215519336   20.34373611331427
H         7.10148448636824    8.29804278673134   20.76249912085808
H         6.19658105625678    8.80704382149367   19.31813675425377

