102
CSD_code = QOKPEL | q = 1 | S = 0 | Stoichiometry = C46H51MoN4(1+) | MND = 9
Mo        2.00109082039082    1.98758144949587   22.50051448248238
N         0.49989176460602    3.54399579693405   20.20438152504850
N         4.28163038598815    3.76448834047446   21.21873056494415
N         2.99642030395976    3.80807938814243   24.88431747512790
N        -0.75675528448933    3.05165453482033   23.62294789174785
C         1.18000240085254   -0.06131196677371   21.98085200228766
C         2.41491227752814    0.10707790184150   21.29078447483573
C         3.45495169600145    0.21644656063413   22.27245920287713
C         2.86282045014251    0.09829274499876   23.56100152109278
C         1.45965941035202   -0.05930714216167   23.38959006813975
C        -0.12189333962071   -0.47025974413855   21.35704655020173
H        -0.15756446594804   -1.55777658490538   21.25875756927382
H        -0.23824361865303   -0.03899757701570   20.36344283468214
H        -0.97110188886228   -0.16067296303658   21.96551599597347
C         2.63168291331410   -0.08793509388307   19.81925847572844
H         2.82067167644232   -1.14391807599201   19.61218770246255
H         3.48875178361234    0.48272924830001   19.46304949006486
H         1.75697056821561    0.21587222182588   19.24587536846288
C         4.92636694106852    0.15474035184573   21.98866463390980
H         5.23967991460928   -0.88976752107135   21.92121380870247
H         5.50393570158371    0.62801361187745   22.78180978909829
H         5.17391303208378    0.64125425103672   21.04597164044678
C         3.61240617541226   -0.05756654616567   24.85025940730221
H         3.90717657256487   -1.10189531628175   24.97675753258544
H         2.99790319795540    0.22364741454552   25.70379486563526
H         4.51631935327781    0.55054560372886   24.86319798382019
C         0.49273687468113   -0.45642573498344   24.46538437688870
H         0.50327312117998   -1.54259673994629   24.58197536260524
H        -0.52512589894890   -0.15477956057818   24.22143484721339
H         0.75913905238125   -0.01396850013409   25.42462895360692
C         1.08396191712465    3.01596893737601   21.08165896074729
C        -0.13756163439676    4.52998529642834   19.51333304508329
C        -0.26555108261962    5.79627035936896   20.10387359554364
C         0.29069173844533    6.04671818658076   21.47141723167196
H         1.33463692868540    5.73024757963545   21.52827522174733
H        -0.26073036313534    5.47444939236457   22.21941723968479
H         0.22479200666236    7.10102100673326   21.72416173223876
C        -0.92102167862600    6.78238070515412   19.38479980881272
H        -1.03230165974580    7.76481451547842   19.81812072369847
C        -1.43207139035056    6.52149181045822   18.12402096141167
H        -1.93932962613657    7.30281928826991   17.58010179288298
C        -1.29477822463032    5.26549303459776   17.55783803221356
H        -1.69521543867385    5.07117616990831   16.57472966024283
C        -0.64601224488600    4.24933507708750   18.24075620655013
C        -0.48578613484002    2.87820287409668   17.66264604454894
H        -1.02951312008963    2.14931822530434   18.26417045466945
H         0.56456363293038    2.58787784837362   17.65491219535450
H        -0.86700570148647    2.84149331421110   16.64656503481276
C         3.44150780938952    3.09679992013975   21.69096208081365
C         5.21521845435258    4.60431069147525   20.70770937429669
C         4.90873458603312    5.33811085817942   19.55218251832635
C         3.56582474759425    5.20492812199212   18.90412885171032
H         3.59660873604458    5.57248518773655   17.88240611300069
H         2.82365890243904    5.78754646980289   19.45126015815303
H         3.23358064076482    4.16735677586906   18.89995844626491
C         5.87611044684409    6.19404101477165   19.05189314960518
H         5.66241804209610    6.76835909629674   18.16347381621793
C         7.10642443042130    6.31783542215636   19.67554103843688
H         7.84792081387699    6.98833455632565   19.27032649762756
C         7.39133582245026    5.58479484076833   20.81511023006013
H         8.35299056957989    5.68563060756729   21.29470076027760
C         6.45600999638544    4.71484358687388   21.35191653764457
C         6.75987104996527    3.89347590554421   22.56710773187213
H         5.87461566783182    3.76315780838467   23.18922530670790
H         7.54378641699469    4.36074013257738   23.15717204562002
H         7.10875925098232    2.90438176319262   22.26702819787113
C         2.60474533619496    3.18020184854987   23.97133238825869
C         3.41784936793966    4.74918588140546   25.77022486053442
C         3.79250731752338    6.01705506751665   25.30277916933701
C         3.74630586141913    6.34803971624873   23.84265793169832
H         2.96222769588697    5.78593519563757   23.33457755893097
H         4.69839441472889    6.10260977050238   23.37058659020759
H         3.57032607773985    7.41125209606354   23.70201713084219
C         4.21910107303629    6.95010048766579   26.23510367502656
H         4.51281875831482    7.93204338052143   25.89650981221615
C         4.26994446002255    6.64016329907866   27.58304842438381
H         4.60440168935048    7.38126140803421   28.29193134845983
C         3.88907901275630    5.38481304179830   28.02648553060011
H         3.92695334954475    5.15025592422658   29.07926208752229
C         3.45759059057439    4.41983324437787   27.13194655584881
C         3.05643646985251    3.04988884093518   27.58377098815675
H         2.91043813261976    3.02898758329693   28.65984852475959
H         3.83471622551288    2.32917619705413   27.32994408467433
H         2.13528648883291    2.73619383122499   27.09419807545920
C         0.28070415821762    2.64859147203536   23.25254446542988
C        -1.91587339711427    3.59580273173915   24.06990229052076
C        -2.00011110790099    3.97097397476765   25.42020684069606
C        -0.82124828949731    3.76851246195953   26.32047020348529
H        -1.02850296748840    4.14935523201084   27.31607297279523
H         0.05570184051554    4.28078276543404   25.92228077054958
H        -0.58169033069499    2.70715181500082   26.39535901395974
C        -3.18642208872925    4.52226621400675   25.87040170146982
H        -3.27393654509700    4.81726767916370   26.90482840330236
C        -4.25789673232714    4.69577967767584   25.00837119071036
H        -5.17734230698983    5.12350194717858   25.37621906716437
C        -4.15560853987441    4.32339124900832   23.67988553814657
H        -4.99351815978451    4.46332946137616   23.01411020482604
C        -2.98637481895943    3.76710723085284   23.18233271771573
C        -2.86875772259732    3.38670429583559   21.73861526977447
H        -2.09465957472219    2.63658764280489   21.58554419402493
H        -2.61162446339725    4.26280131772029   21.14121592061528
H        -3.81652747555677    3.00135928261307   21.37080730423493

