117
CSD_code = QOKQIS | q = 0 | S = 0 | Stoichiometry = C41H53AuB19P3 | MND = 3
Au       17.72732981447160   10.45760811858990    9.80661117777598
B        17.94056103075582   15.72487800879447    8.54489664019155
B        18.00992544952746   14.03868328937021    9.01405257418245
B        18.75890080292010   15.28138440636997   10.00589466192660
B        17.68315610526539   16.66605549431281   10.08969710287350
B        16.31932050602899   16.30569661494374    9.00506448845506
B        16.51031054894979   14.69411732453255    8.37597663722783
B        17.71680894865710   15.45879399998161   11.45900540486629
B        16.04854946724491   16.23188378194475   10.77513053348017
B        15.44421312979315   14.95824245286370    9.78194127767324
B        21.29892254894267    9.41411384353000   10.94838039596325
B        21.23928840183294    7.77043063874523   11.54977839046954
B        21.46793458070967    6.66504346685920   10.19201504103543
B        21.69289569072596    7.61551991795742    8.71885199479284
B        23.12574963258569    8.60591894426728    8.90642956083085
B        22.88188356230652    9.71455404830353   10.25667791191528
B        22.70724994467594    8.75561376398161   11.74789381404491
B        22.82296063160059    7.02974762588715   11.28255964107823
B        23.09309648076811    6.93076188677347    9.51865377030895
B        23.85528913716518    8.23968313005789   10.47844417186949
C        16.51854420470495   13.73970894553625    9.88870781778867
C        17.78275131384457   13.99645150442607   10.73788695279341
C        20.63540866924087    8.15013882944432    9.97173296155545
C        21.57182930495590    9.24377682367960    9.25896038872416
C        20.91868324459115   10.22813081305227    8.31600584215844
H        20.22958408240772    9.73305210854307    7.62552533171664
H        21.67845268538618   10.72848311275618    7.71702058626972
H        20.36206510442769   10.99899122727597    8.85252437598197
C        14.94750772499457   11.68180297965475   11.29870389189244
C        14.09983979974709   12.62542813818856   11.86994626793673
H        14.04928106498305   13.62035331694143   11.45241366574623
C        13.33374636516040   12.29111418000000   12.97200906113265
H        12.67431521956754   13.02824235655723   13.40668238445565
C        13.41192915937618   11.02202034862506   13.52199536409818
H        12.81801187416152   10.76868670732211   14.38777050193432
C        14.25537079230902   10.07850647472391   12.96053174594257
H        14.32483992414227    9.08622782363040   13.38255451200278
C        15.01269264019518   10.40817377589669   11.85312794087392
H        15.66980765051340    9.66734537450168   11.40873318913160
C        14.82165364697972   11.84856199732964    8.46236893843500
C        13.44064743008496   11.90162586192290    8.60428194091885
H        13.00245129812282   12.06904932796167    9.57736939498069
C        12.62729735598275   11.74562186534893    7.49569481584853
H        11.55416892375748   11.79582910485053    7.60918250470196
C        13.18047878947658   11.53016497282315    6.24489817092756
H        12.54014248703913   11.41220549687322    5.38333834982000
C        14.55778277048112   11.46516251825460    6.09895691080468
H        14.99257725615263   11.29915313004275    5.12378149388870
C        15.37201629020885   11.61768218329368    7.20274011776531
H        16.45005942512963   11.57649815510723    7.09840574463261
C        20.23029000802975   13.21314373344920   12.01870515598293
C        20.45110696837613   13.71207713044511   13.29729489981026
H        19.64477295809259   13.73981191355740   14.01541942130951
C        21.70123935375464   14.18656294605920   13.65012717212496
H        21.86068096747318   14.58136600711338   14.64318330623859
C        22.74362552150815   14.16423988547237   12.73919405953622
H        23.71732231552132   14.53653026519883   13.02074014048529
C        22.53232188622117   13.66716642517106   11.46358569616736
H        23.34038619449431   13.65351783489100   10.74697726671001
C        21.28543775423640   13.19217521204883   11.10968987424212
H        21.11497549505702   12.81798033663486   10.10928701162731
C        17.85088843635454   12.23937061291645   13.08067528265764
C        16.72427186742184   12.89297434035655   13.55947040665793
H        16.28816581215480   13.70318125461507   12.99646552201748
C        16.16648301220397   12.52466814073706   14.77133479631344
H        15.29634844942364   13.04857198303016   15.13907496564479
C        16.71758673096392   11.49397482577934   15.51184986001451
H        16.27503720897143   11.20658777818175   16.45445638201270
C        17.84754358122366   10.83925699811786   15.04622061034955
H        18.29493325355765   10.04504112307517   15.62738168517713
C        18.40720689335611   11.20950185915905   13.83998849759395
H        19.30633548938467   10.71749392632141   13.48612806665597
C        18.04478579001357    7.39218575833371   10.98557543205628
C        17.80786157521052    8.06034780722926   12.18648145891212
H        18.11780374847807    9.09121353372225   12.29688867714265
C        17.17792018259370    7.42177009194286   13.23559332547833
H        17.00312103804850    7.95699099096389   14.15672657740816
C        16.76515987399270    6.10633098806968   13.09273682898845
H        16.26767192619994    5.60319012697726   13.90799480924085
C        16.98161394340603    5.44164610055153   11.89760253174611
H        16.65102283828968    4.42046156361060   11.77991960028284
C        17.61460955715672    6.07862877962194   10.84385324794086
H        17.75584014480079    5.55259278108401    9.91185494123443
C        18.36268874289539    7.47712250288942    8.14983262454748
C        17.44448717756151    8.11608112737433    7.32010451291441
H        17.08029276013338    9.10030694174103    7.59213413074029
C        16.99084747407561    7.50905098119635    6.16412181327296
H        16.27717636171504    8.01975062237268    5.53567835807696
C        17.45460999602911    6.25018107743921    5.82076635911803
H        17.10659483810312    5.77194779909289    4.91797556662681
C        18.36761742531889    5.60519898542894    6.63977445272487
H        18.73135724574491    4.62347517821434    6.37552781832905
C        18.82071048860847    6.20838226995690    7.79924328549389
H        19.53934803119077    5.69390369504948    8.41747710838791
P        15.99802833791831   12.00749960830130    9.83513234485331
P        18.63210239841629   12.52452666417471   11.44462242692521
P        18.81766945180442    8.38696208178090    9.66756201144331
H        23.25993800810464   10.82076596845489   10.16709962438165
H        16.07487068898922   14.22158864057775    7.38569338482280
H        18.13335659879321   17.75094875309812   10.21475131410947
H        18.52571261131405   16.13414625476981    7.60682793012895
H        18.28536876261651   15.63514817308692   12.48333054214774
H        23.65642574490441    8.99363302664332    7.93298735330238
H        20.45892581214266    7.49083479755363   12.38281986345953
H        25.01738891198645    8.28599341338983   10.64073613819841
H        18.57388534471061   13.09715578033425    8.54791785049901
H        21.20945800397449    7.38555587805785    7.67335402330224
H        15.43098793743285   17.09659710226781   11.30213656546430
H        20.84009597551640    5.67045761512374   10.17055917370434
H        23.70718769371055    6.06488048078907    9.01592347486533
H        19.91964756720870   15.27158702844190   10.20401524369612
H        23.24168459993340    6.21427498598809   12.01723066489068
H        15.73361711588026   17.14707960620907    8.42175135652904
H        14.30429975564432   14.67201753342883    9.59175428570826
H        20.54407490015868   10.25964530171021   11.26284124025402
H        16.42937861261209   15.49061689132129   11.75411874405019
H        23.04761093582705    9.15410996661381   12.79841454746406

