30
CSD_code = QOKROX | q = 0 | S = 0 | Stoichiometry = C9H12Cl2MoN4O2 | MND = 6
Mo        2.39394919569943   -6.03763655086704    5.12014555659317
Cl        2.33753816366153   -3.73841404599920    5.31281431395822
Cl        3.01025873327005   -8.16329191913983    5.95599223124657
O         3.13857287350066   -6.12535791888471    3.66054593577601
O         0.78016867415971   -6.29276552957886    4.96825200196903
N         4.95516685207226   -5.86281428569070    7.29549026127205
N         4.49992641848925   -5.69959768538562    6.04423594298861
N         2.87861441211734   -6.03531420316816    8.44256332420168
N         2.03202773375003   -5.87736794883062    7.41370822243490
C         4.18748408375531   -5.39302926473850    8.44279138600211
C         4.92977215386070   -5.72199075196403    9.73664370721833
C         3.99576872503553   -3.87405624555371    8.32499731844969
C         5.48618633620157   -6.05140645226044    5.23270283998237
C         6.60137315081466   -6.45322531919884    5.96642486737075
C         6.22326076238243   -6.31925774140865    7.28046956668403
C         0.87764439293788   -6.40947147301791    7.78765993137056
C         0.97476166873534   -6.92747935692363    9.07844190516161
C         2.26832982148635   -6.67027083453866    9.46303899981940
H         5.08732659487309   -6.79249326222306    9.84534226130917
H         4.36177107608511   -5.35297227756215   10.58627217604279
H         5.89044119035688   -5.21419402400929    9.74502735953180
H         4.96490233725643   -3.38146813537388    8.32289599951396
H         3.42008288370687   -3.51091282503939    9.17275705409086
H         3.46831542666915   -3.61277869458382    7.40560339059771
H         5.35329793010436   -6.00359348172149    4.16721742519976
H         7.54197640423478   -6.79653510966877    5.59048862673521
H         6.78182985421720   -6.52793868259000    8.16784399272826
H         0.03575490578975   -6.39962094605180    7.11940322357652
H         0.21259205515603   -7.42177974006845    9.64327783273681
H         2.75930518962024   -6.91006529395862   10.38205234543800

