56
CSD_code = QOKSEO | q = 0 | S = 0 | Stoichiometry = C24H24Cl2N2O2PRe | MND = 6
Re        0.38192811307256    0.62095764957968    3.62996848511490
P         1.07844360356744   -1.17668496147244    5.06495680327215
Cl       -0.54926849886623   -1.12404336178082    2.25993323314655
Cl        1.54385178525502    2.30650056654798    4.86440688765346
O         1.80425783039587    0.54055702316409    2.60710013899805
O        -1.01713104056104    0.82336280197174    4.49126980813574
N        -0.40671667855247    2.31986437552473    2.13068576925731
N        -1.42056495424643    4.24151498075328    0.43710173752004
C        -0.13992174998243   -2.49234107064955    5.33509229348282
C         0.28297213133101   -3.75319605642583    5.74602976700988
H         1.33843484603704   -3.96503518711034    5.84954570541630
C        -0.65272142371550   -4.73558261436760    6.01224411822924
H        -0.32603441986902   -5.71758245025504    6.32162114207304
C        -2.00495748705205   -4.46163822891097    5.88112001255597
H        -2.73132228087477   -5.23447416363999    6.08465486887341
C        -2.42518736193423   -3.20031533100332    5.49173270096875
H        -3.47870765370516   -2.98728849844921    5.39331459653963
C        -1.49652527059673   -2.21084959737511    5.22281579873713
H        -1.80968874089771   -1.22280908216981    4.91036257633835
C         2.55221254441876   -1.92931200938304    4.34562357168008
C         3.79505237747747   -1.34228001948193    4.57482533814742
H         3.86875997495338   -0.49049972625727    5.23827998737241
C         4.91798046894119   -1.84318465195349    3.94128362930964
H         5.88304477128439   -1.39222235457505    4.12086835901132
C         4.80357376841569   -2.91469228741705    3.06875987224510
H         5.68187683474781   -3.30162843933103    2.57361213338079
C         3.56262589616095   -3.47885326045061    2.81694484316949
H         3.47288664989754   -4.29922963927546    2.12016577583033
C         2.43321391456533   -2.98536954042745    3.44611716582383
H         1.45744158094197   -3.39879158945759    3.23241444531198
C         1.46480523584050   -0.69560641754100    6.76934257048399
C         0.68613213085594    0.30300994714332    7.34692964444382
H        -0.06876035851212    0.79725016312906    6.74830355236285
C         0.90325110730594    0.66628273253674    8.66301224398875
H         0.31045151919091    1.45050873831166    9.10833029411030
C         1.88572435354926    0.03021214221329    9.40518379062585
H         2.06036314576510    0.31974947870850   10.43083395752729
C         2.64683804856892   -0.97762746022230    8.83549363520191
H         3.40860714978137   -1.47596462202606    9.41710627561045
C         2.43737063699641   -1.34790315876424    7.51920221974580
H         3.03247057001381   -2.13417578893397    7.07541555941850
C        -1.09643657447222    1.97493760180969    1.05154595511684
H        -1.24223785512371    0.91614956413594    0.87781571329546
C        -1.60224716876841    2.95306622511736    0.20304106312832
H        -2.16431965845025    2.69636731465334   -0.68360236110975
C        -0.73743727694792    4.56990063215761    1.52002865439537
H        -0.59891534295298    5.62582426318383    1.70357485032088
C        -0.22056305560268    3.60849652370329    2.38170193715652
H         0.34509503567232    3.85729142897804    3.27080790645801
C         2.85636197503739    0.60830500291653    1.74430013737503
H         2.89874368685500    1.62783178690591    1.32112864724256
H         3.79231432663483    0.43928255496636    2.30406001248803
C         2.73304476019328   -0.41828332733088    0.61523732288639
H         2.73564873242376   -1.42448006482968    1.02839961438414
H         3.56441486053984   -0.30937858121403   -0.07569615765466
H         1.79617048497340   -0.27139995565248    0.08195139638746

