75
CSD_code = QOKSOZ | q = 0 | S = 0 | Stoichiometry = C31H39ClIrN2P | MND = 8
Ir        3.15769321612550    1.30015315608733    4.16211443248826
Cl        2.54586016814590   -0.82102015720788    5.06244038920922
P         4.44819908128747    0.26546746735926    2.58524923906741
N         5.32737689481376    2.38315479879091    5.79849109433207
N         5.84159346798299    0.30767753557127    5.32629640824552
C         1.40032373953498    2.35503721101428    5.04105710255226
C         0.98907529882353    1.89472072044481    3.72772502180510
C         1.79614778484410    2.52108007851422    2.77402204009998
C         2.74679625518693    3.36193230696207    3.48254075852341
C         2.39818268034223    3.34546902729773    4.86857939767762
C         0.65817822392890    2.03471067737007    6.29858134078843
H        -0.28803520623108    2.58048091055187    6.32412988170499
H         1.24268735756957    2.30398653514380    7.17488830091282
H         0.43638942117926    0.97006249046169    6.35178388153373
C        -0.19615678973922    1.01541471066631    3.49154242119194
H        -1.10606706509931    1.52418305288731    3.81555860443520
H        -0.11230290723594    0.09077114173045    4.06367558656282
H        -0.29909809329527    0.76644903030373    2.43728366469515
C         1.63236530277064    2.47197012453779    1.28804718213862
H         0.89135712072782    3.21132919415329    0.97570018797793
H         1.29585356924327    1.49163259682613    0.95294808617842
H         2.56967927339629    2.70227243771749    0.78519033318702
C         3.65837120553402    4.37292152056996    2.86457408709797
H         3.15215850326952    5.33853766360772    2.79487879835352
H         3.96646777886363    4.07750842197446    1.86398341717482
H         4.54891842584287    4.49602204297910    3.47700187246407
C         2.96564886984266    4.25756666457855    5.90267213480387
H         2.99104032587165    5.27841740979648    5.52346127558417
H         3.98495006548257    3.94127070196206    6.13700532666417
H         2.37040245830971    4.23298472657119    6.81171038635095
C         4.90436417186104    1.29370692512962    5.20445903995017
C         6.55553402752889    2.11771310731331    6.33673793768805
C         6.89026473243072    0.82730742879315    6.04245586186935
H         7.75142241331751    0.23647214974382    6.27971276689657
C         5.79819903775293   -0.98420268662347    4.70219961749555
H         4.87556152356614   -1.49621030617934    4.99231877871790
H         6.65573131433438   -1.56954176228504    5.04511141043840
C         5.83875265996780   -0.82809212103275    3.17748745292508
H         5.73614706438364   -1.80740657539839    2.70540307376454
H         6.79029714230071   -0.38072951587486    2.87619214862606
C         7.31302941154222    3.17726351450715    7.08491375168289
C         6.51576200112702    3.56686196688404    8.33493940109476
H         6.40695772291231    2.70896709374573    8.99461987414117
H         5.52433413787537    3.90816689665980    8.05116675733528
H         7.02245792822321    4.36294632034133    8.87721322718085
C         8.69397561509563    2.66467051366916    7.49556835080174
H         9.27111833169475    2.37153931582905    6.62122077863588
H         8.60252796075386    1.80523958629855    8.15539350790280
H         9.23914899262786    3.44569894296281    8.02178032899391
C         7.46478651481011    4.40105868930302    6.17346186300185
H         8.05776800496890    4.14803417773611    5.29661781314239
H         7.95718742458385    5.21360781463940    6.70388871480347
H         6.48595381127768    4.73574677852896    5.84168791147081
C         5.34946826325933    1.45203678381594    1.53774565214121
C         6.32916144224367    2.22620925114709    2.15740359978995
H         6.54586245119897    2.06837415744553    3.20431840871632
C         6.99637083325744    3.20659603977665    1.44929625280454
H         7.75522572422620    3.80103970598060    1.93589375582586
C         6.68334019519579    3.43584095209588    0.11797544855270
H         7.20262254792057    4.20327117821937   -0.43643375718021
C         5.69415339050439    2.68700968791032   -0.49636538551108
H         5.43877468798393    2.87192196096759   -1.52981868037316
C         5.02323551669243    1.70255163455980    0.20995724642067
H         4.24918338627573    1.12495879190146   -0.27529290096880
C         3.63472743827307   -0.84198764622972    1.38986973684155
C         4.35297661935299   -1.39198105021488    0.33025169227118
H         5.40091777562957   -1.15189154370334    0.20872857611066
C         3.72471209634419   -2.23776534088839   -0.56411008064176
H         4.28190214220434   -2.66020314767739   -1.38767328574972
C         2.38217748286135   -2.54693906152479   -0.40448841748146
H         1.89580496554961   -3.20870069681295   -1.10588795164407
C         1.67054350474901   -2.01676591285422    0.65799398974809
H         0.62933763145163   -2.27045022202295    0.79209455102988
C         2.29526304961999   -1.16610266655745    1.55385757410100
H         1.75960048294030   -0.77170530925899    2.40320095284377

