99
CSD_code = QOKVOB | q = 0 | S = 0 | Stoichiometry = C44H44N4O4P2Ru | MND = 6
Ru        4.32840760733641    8.01197451281643    0.00001372956897
P         3.59777082346199    8.60576519106647    2.13297363213850
O         3.37721587664729    5.35008301175885    0.24053464182141
O         7.05337341124657    8.91461443372038    0.66477709898543
N         4.40575348196409    6.10262079130990    0.45590779579757
N         6.19623293121940    7.84847360063962    0.63540317363706
C         5.75393627322227    4.24731075287066    1.37725329683011
C         5.53850401860857    5.66394399134324    0.93857149798733
C         6.57301543455250    6.67201244972095    1.02132931390491
C         7.95728934325564    6.35486704258454    1.48663868725603
C         2.55440445950783   10.10677237271695    2.16628937910572
C         1.17935695533187    9.97923037838719    2.35247592645066
C         0.36118366407215   11.09387507505680    2.32773130244851
C         0.90212938057621   12.35059348068452    2.11391776735168
C         2.26172923011445   12.48128697434350    1.88564118637524
C         3.08219785988364   11.36709642543621    1.89203175873373
C         2.61069505633424    7.54756655936932    3.25984634530118
C         2.07892089088702    6.32215542576264    2.88540019924425
C         1.34339314166600    5.57876141259759    3.79593814925558
C         1.13209323394258    6.05230843379451    5.07757055744595
C         1.66040859336476    7.27815324441160    5.45598796786082
C         2.39506079170858    8.02100868497525    4.55478648314595
C         4.97688396115979    8.89487006864217    3.30312744947373
C         5.61404714818674    7.72602900743667    3.72318360022979
C         6.70097700990901    7.78160779016577    4.57146186391145
C         7.16926287914338    9.00816521998251    5.01527442331201
C         6.53197973378349   10.16929442845258    4.61783747727254
C         5.44067688564564   10.11792678748431    3.76594195452573
H         6.47603897333578    9.70094476470848    0.35567592469948
H         4.85338285883467    3.68015662339020    1.14956355334722
H         6.60151154660416    3.80035620726624    0.86026540380975
H         5.93788059251354    4.19680188374114    2.45102875502189
H         8.50952790786075    7.28026730517763    1.63009300272897
H         7.93149255523461    5.79745916522138    2.41994133988992
H         8.46756277494050    5.74768649056512    0.73866434103625
H         0.74588574426635    9.00196900583926    2.51170525877233
H        -0.70306181363221   10.97961747448639    2.47599419312071
H         0.26387440904501   13.22226601146617    2.10667049391208
H         2.68599368613343   13.45513422080138    1.68810158965739
H         4.12860234280153   11.48012632796363    1.64732653259688
H         2.23938681522936    5.93097400199189    1.89235703918610
H         0.93585186559681    4.62466239710509    3.49575684341565
H         0.55840601565060    5.47084619337378    5.78459044554375
H         1.49843619500617    7.65273006981634    6.45646418043339
H         2.80634080647332    8.97819238646275    4.84794855879225
H         5.23214286036024    6.76988657197349    3.38642985209255
H         7.18476631967340    6.86983229651417    4.89120562570054
H         8.02364392069131    9.05602404535814    5.67412386924164
H         6.88432412093288   11.12722633623101    4.97183934064335
H         4.95100218821598   11.03585157083748    3.48372977499790
P         5.05906203265372    7.41822499012249   -2.13291650739121
C         6.10234860127501    5.91715698011312   -2.16631419636066
C         7.47739658367443    6.04468771880738   -2.35250433224544
C         8.29555883229981    4.93003442087472   -2.32781955302933
C         7.75460067035710    3.67330878647267   -2.11408194323502
C         6.39500436306134    3.54262235117954   -1.88578970079112
C         5.57455097027678    4.65682522727691   -1.89209737201152
H         4.52815915888294    4.54378908962842   -1.64734729905213
H         5.97072359301026    2.56876305229605   -1.68834184526598
H         8.39284046610000    2.80162474871934   -2.10691877555908
H         9.35980894872736    5.04429338436792   -2.47604592392430
H         7.91088548423212    7.02196060218637   -2.51161523644173
C         6.04615736519474    8.47636194458189   -3.25982006421409
C         6.57797888766886    9.70175014367623   -2.88537881289733
C         7.31346231246915   10.44514925761240   -3.79594506442723
C         7.52468010167671    9.97161895920261   -5.07759738556262
C         6.99632485324246    8.74578840559615   -5.45600639701594
C         6.26170612307372    8.00293426045714   -4.55477841319929
H         5.85039733627558    7.04575813242776   -4.84792659157192
H         7.15825989083003    8.37121133671520   -6.45648837060514
H         8.09834993482345   10.55307633357785   -5.78463406719007
H         7.72103550746787   11.39923538294082   -3.49576776452425
H         6.41755091609142   10.09292736065658   -1.89232870893269
C         3.67980966594334    7.12919896001444   -3.30294517196117
C         3.04287267268049    8.29809835469289   -3.72318361201886
C         1.95590969532667    8.24260074145016   -4.57142877631362
C         1.48738717951561    7.01607099533365   -5.01507024797294
C         2.12443645974660    5.85487895959479   -4.61745145395144
C         3.21573879664579    5.90616070500643   -3.76554715091236
H         3.70530967764328    4.98818891137030   -3.48331141831533
H         1.77187983938125    4.89695947141945   -4.97127873362997
H         0.63292060629172    6.96827081110292   -5.67381324329339
H         1.47226316339445    9.15442079398236   -4.89126367040408
H         3.42496612348079    9.25421959060768   -3.38659032333091
N         4.25113862510512    9.92135082450075   -0.45585663715576
O         5.27972180654715   10.67386514011101   -0.24060468707731
C         3.11843214472365   10.36003754269839   -0.93862742455932
C         2.90308051761598   11.77665278644560   -1.37741876736544
H         3.80365116916983   12.34378578197367   -1.14974304806649
H         2.05551110363559   12.22369000312171   -0.86049254791474
H         2.71917055011472   11.82709510081201   -2.45120398439225
C         2.08389976399470    9.35199456955467   -1.02142833099280
N         2.46062054909771    8.17554365345543   -0.63542186196296
O         1.60346022521805    7.10941678270682   -0.66473054717717
H         2.18075389830427    6.32311805262899   -0.35547690263341
C         0.69965334679147    9.66917266605656   -1.48678663704102
H         0.14740342627141    8.74378276075695   -1.63026690257794
H         0.72551360120448   10.22658291171451   -2.42008502387661
H         0.18935969628891   10.27636136157688   -0.73883114769820

