27
CSD_code = QOKVOC | q = 0 | S = 0 | Stoichiometry = C7H16AuNS2 | MND = 4
Au        2.62873962922468    2.18777493717635   10.42009938896328
S         1.51776771557910    4.14217902926391   11.35851214432691
S         0.71392678472892    2.68084195320468    8.99482832614347
C         0.41621179228119    3.97156555406936   10.06826023795875
C         4.16255374032415    1.96770846735747   11.73095510932137
H         4.21708125364464    0.96021255507149   12.12052744833580
H         4.00878830803483    2.65268407851091   12.55652280642081
H         5.10641322037675    2.20392033519299   11.25693257398062
C         3.38124847699734    0.55142446078923    9.48459906940101
H         4.43852790568708    0.65616211136695    9.28110186720976
H         2.85622523628163    0.42225535364042    8.54521822836751
H         3.23366464640410   -0.33489483330461   10.08840079554393
N        -0.60836010943861    4.79474021928031    9.90858092781321
C        -0.83775503508939    5.89504594296444   10.82425355100218
H        -1.32393733671265    6.69851858797339   10.26723013997830
H         0.12904570875641    6.25135313888476   11.18723730307332
C        -1.70007980412495    5.46586313280374   12.00695878283554
H        -2.65867419003580    5.07942951174675   11.66783495612350
H        -1.87580028608022    6.31478962565070   12.66120586270097
H        -1.19068043103341    4.69044205917026   12.57263375740237
C        -1.54454479851153    4.62751028851396    8.81453632296707
H        -2.52049718660095    4.98354514430942    9.15165304675625
H        -1.61778926800173    3.56260275100786    8.58114632194989
C        -1.09514495664621    5.39239253320052    7.57355175536554
H        -0.99160861414200    6.45372719034589    7.78792382007280
H        -1.82490118997834    5.26522176753460    6.77944853137349
H        -0.13772121192343    5.00988410427401    7.23024692461312

