111
CSD_code = QOKWIW | q = 0 | S = 0 | Stoichiometry = C46H49BCdN8O6 | MND = 5
Cd        5.36729542043820    2.89259643062944    3.54913167662146
O        -0.22675269001948    5.40489256231591    0.66839437345899
O         0.81687251484817    1.57757406122751    8.14384780006988
O         7.45553351155473    6.88880589836404    8.43178832038533
O         0.14090493855387    5.32131734430582   10.95324596521369
O         3.46373954879349    4.15767573641318    3.95811114532017
O         5.06081117473950    4.95327856133645    2.68539317085300
N         5.23584871536322    2.14163246048122    1.46420420893535
N         6.32211840534366    1.45939957103599    1.07638949429960
N         5.44256425520433    0.70488272208563    3.82701072153667
N         6.46268585183476    0.10009765421424    3.20642749166294
N         7.58998608377480    2.81845525176295    3.51101533286509
N         8.14607463286759    1.87359270099219    2.74179866990147
N         5.51065227239751    2.95915054627103    5.92991313252937
N         4.45626084447216    3.59963050366591    6.43229870163856
H         3.80381912723176    4.01375785172759    5.77032436144960
B         7.26736169489363    0.78444798462511    2.07830976309965
H         7.94629353295168   -0.00980848022404    1.52946410983422
C         6.43782924953396    1.50398224804133   -0.26714037094808
C         5.38143906693286    2.24677502133935   -0.75655942672683
H         5.16106973577176    2.46416216347312   -1.78214837380275
C         4.64410825007877    2.62518084174520    0.37392730604278
C         3.39331616575964    3.37101844036633    0.43026264504565
C         2.40059178283932    3.01386167139208    1.34357734756240
H         2.56718678684038    2.17271551131673    2.00177008532639
C         1.21138341922423    3.70522924359270    1.39188714697142
H         0.43774151652581    3.43678164399462    2.09418552064714
C         0.98049860214322    4.77828915459393    0.52905323157604
C         1.96008321997791    5.13324067073519   -0.39054522804309
H         1.81164280315853    5.95591602595659   -1.07286642453405
C         3.15110316826976    4.42995492753209   -0.43577796864237
H         3.91118994746658    4.72224259563026   -1.14499918099507
C        -0.52135767671288    6.48542252236439   -0.18031095569002
H        -1.51789018265860    6.82125236159261    0.10338418785564
H         0.18836669547635    7.30884881224406   -0.04639831057125
H        -0.52975317073496    6.18170525457963   -1.23246387557260
C         6.70418759495459   -1.09491072771696    3.78494527609005
C         5.80294021710190   -1.25364848603671    4.82057782231357
H         5.70974030118485   -2.09970237767219    5.47108728550620
C         5.02172346963409   -0.08961947072480    4.80970321577560
C         3.92445453813419    0.29462778399814    5.68881245670520
C         3.89469072787363   -0.10725359448604    7.01953762966594
H         4.68666792886550   -0.73132219831246    7.40639928142945
C         2.88179602259349    0.29844132736564    7.87096631043466
H         2.90415860907458   -0.02180283066933    8.90081193136327
C         1.86056689568516    1.11355106096183    7.39739921255165
C         1.87030437308955    1.50001851740364    6.05552624214641
H         1.06503005331448    2.12007040652295    5.69488972635320
C         2.88686611428211    1.10185807984244    5.21730037746879
H         2.88222484029185    1.40940599459615    4.18099163063895
C         0.78372910021599    1.26703656039772    9.51426426108055
H        -0.10212735925326    1.76191463181234    9.90941609745371
H         0.69719734213582    0.18804182041030    9.68090102740265
H         1.66855149677693    1.65008939169191   10.03250304147321
C         9.49032546867522    1.95163580153557    2.81332049372466
C         9.80541194312833    2.97718353174794    3.68362183816018
H        10.78467061701678    3.31607987892575    3.95538357610208
C         8.57265947625097    3.49647769513553    4.10650618952048
C         8.31813885842265    4.48806493092317    5.14547055889907
C         9.15548332122954    4.55252930521438    6.26076497500930
H        10.03976112047395    3.93334083648233    6.30179692276561
C         8.85081422205610    5.37244932504162    7.32411133205218
H         9.48401905279936    5.41520918670161    8.19676153657279
C         7.69456732266653    6.15395464642452    7.30661486542082
C         6.88777514046448    6.13945148958139    6.17438060966259
H         6.00741036079274    6.76076054027745    6.11306195446462
C         7.20321115512346    5.31836245177437    5.10582491946920
H         6.58926032367145    5.33771722118141    4.21692367796015
C         6.26953079786965    7.64077461667451    8.49999535695162
H         6.27270509780325    8.10912865279968    9.48341799416281
H         6.24152603026841    8.42026784287314    7.73115466120687
H         5.38359518368161    7.00290755349742    8.40604005758477
C         6.16293925661480    2.43645920299969    6.96135207962623
C         5.50075536730187    2.75869028254259    8.15123711005526
H         5.79217965343303    2.46944259591604    9.13970339826678
C         4.38846610826426    3.50038630384240    7.77478132781109
C         3.29641537886536    4.03421251579695    8.56518071040359
C         2.12692490692321    4.49662805962320    7.96422304342632
H         2.03292452962306    4.49181615561659    6.88929364823501
C         1.05942796673706    4.93976266632760    8.72176571436761
H         0.16781884191625    5.27570836462286    8.21689055020518
C         1.13648582605514    4.93224735971512   10.11067610913647
C         2.31334759945973    4.49234975589825   10.72105272134532
H         2.36490225999614    4.50049107314117   11.79862041219913
C         3.37174708625475    4.05053262361401    9.96079577186160
H         4.27209596076267    3.71192315411031   10.44932355172332
C        -1.08065250635437    5.74688548219448   10.39931006701317
H        -1.72400911191180    5.97713500122293   11.24719067676444
H        -0.95370067393660    6.64614727109633    9.78792279881271
H        -1.54408412466381    4.95968829185722    9.79596585535926
C         3.93995376814256    5.05294639771478    3.21630563826316
C         3.12799242534420    6.32287098519449    3.00408342450106
H         3.49187437801189    6.84921564978559    2.12718361400517
H         2.07780100441423    6.07111058296695    2.88795277295887
H         3.23974981623349    6.96244807337891    3.87827652870598
C         7.53432207808033    0.85669477212565   -1.03559142530146
H         7.55458025880735   -0.21632983189121   -0.85374991188770
H         7.38397628001277    1.03111304332080   -2.09775586646982
H         8.49948719490973    1.26869600238528   -0.74579951654377
C         7.77453974359589   -2.03455910489887    3.35698971985206
H         8.75726929542630   -1.59201561583500    3.51320873811044
H         7.70741031312803   -2.94986660129695    3.93925314947097
H         7.67648848658224   -2.27901314198575    2.30139782834477
C        10.42197597634924    1.05998771670901    2.07196356432058
H        10.20142939501355    1.06897052400158    1.00669116439975
H        11.44394920676140    1.39779207743346    2.22358621675472
H        10.33768034239158    0.03243217780336    2.42276911552588
C         7.39143790171919    1.61355950332477    6.81063753785867
H         7.61582968325616    1.47420029499710    5.75797320490674
H         8.23584523473848    2.10354753024052    7.29269055689973
H         7.24703591824479    0.63984293658364    7.27635825817866

