71
CSD_code = QOKWUK | q = 0 | S = 0 | Stoichiometry = C30H33Cl2NO2P2Zn | MND = 4
Zn        3.88682020070006    9.65254736513372    4.18338488755797
Cl        6.00076622157845    9.68604954137054    4.70858324911700
Cl        2.91603387578745    9.71038117632789    2.24771169279091
P         2.65141473044989   11.78995555928520    6.56728441058198
P         2.12791187828450    8.44304688737092    6.44898882943444
O         2.85312014671974   10.98097498568974    5.33469898775011
O         3.11399593851896    8.22912916909546    5.36228595237490
N         3.76413552236602   13.00897467579022    6.77777627458303
C         2.88028923294361   10.70741999416691    8.02166438343808
C         2.76797898586771    9.32033053643671    7.92544474817412
C         3.12165818388698    8.53522247337162    9.01803040133057
H         3.06966997322919    7.45899538440353    8.93283539377189
C         3.53890634006777    9.11339275905226   10.20405326770475
H         3.81844957012532    8.48728134837892   11.03782874846011
C         3.58437404740726   10.49256264222967   10.31938376264379
H         3.88301196735636   10.95221659205817   11.24986411399080
C         3.26757875081888   11.27963142269674    9.22693070879696
H         3.32561279655228   12.35590228109677    9.29163751126534
C         1.61763259487398    6.80074572904034    7.04453765127457
C         2.29062944906277    5.70230142146889    6.52580793741686
H         3.09061345921313    5.86735039995090    5.81922806736926
C         1.93435945197362    4.42257501289944    6.91354566797660
H         2.46127621078970    3.57108922588270    6.50988804904098
C         0.90135879431115    4.23749403479475    7.81694636193149
H         0.61997986039360    3.24005664540765    8.12024894802208
C         0.22357428211789    5.33235686094453    8.33120704259439
H        -0.58482237269975    5.18668166549032    9.03253218152725
C         0.57735639916647    6.61230486845780    7.94669722017503
H         0.04636050974932    7.46297452588716    8.34710882252146
C         0.57278050965127    9.22405233778553    5.95277619134826
C        -0.33092822078572    9.68853239680737    6.90172591727362
H        -0.05154023178866    9.71831942689603    7.94690004382494
C        -1.58245704884366   10.11921101492641    6.50327309831282
H        -2.29091497254807   10.46858185291663    7.24005905579413
C        -1.92404773199744   10.10713497170644    5.16013680323847
H        -2.90264917043796   10.44643510308313    4.85403697035158
C        -1.01565910764294    9.66371582991806    4.21321164125015
H        -1.27590147900635    9.66432866178216    3.16578489247074
C         0.22887881238656    9.20539602166358    4.60796776434148
H         0.94185352204956    8.85196517630207    3.87666266716405
C         0.96724930114467   12.45799952309377    6.60843957164574
C         0.34412815044023   12.66955731442395    5.38570250188582
H         0.87608427607256   12.42405934523551    4.47789367575663
C        -0.93940990742359   13.18260918818363    5.34722788235160
H        -1.42209003571425   13.35498204062899    4.39733576509514
C        -1.60130496865471   13.47609747178716    6.52881551108321
H        -2.60116769294320   13.88292124355867    6.50040845931265
C        -0.98940637478918   13.23747574607874    7.74919685806916
H        -1.51401502083969   13.45282146156219    8.66863638573683
C         0.29411526119748   12.72224499076750    7.79291452662702
H         0.77021569968524   12.51892058907106    8.74209820966573
C         5.14160679946454   12.52546171854865    6.58104926672826
H         5.07609018615446   11.43004457013591    6.55691826673517
C         6.05065415196801   12.90575798059892    7.74638933974442
H         5.65093725959803   12.53452223489196    8.68678180662702
H         6.17983984178408   13.98333294877394    7.82010684797688
H         7.02598561406832   12.45483829062941    7.58719366776976
C         5.72981021569537   12.97721506243949    5.24878272303780
H         5.04547703440988   12.73009970663316    4.43948020385276
H         6.65883436925355   12.44329026857670    5.07207404844453
H         5.92679844654211   14.04704715022755    5.23284147608222
C         3.55557809590542   14.45348187599389    6.76617800764408
H         4.55762865210249   14.88736534891406    6.70674574505350
C         2.77015904001125   14.94658579288164    5.55095828266861
H         3.09313358932895   14.41858390903636    4.65754529607933
H         2.94494719682990   16.01080311153349    5.40657961873049
H         1.70310035562899   14.79185924516246    5.68338786306335
C         2.92164202539440   14.95271751261876    8.06364221319262
H         3.52041939687673   14.65383721732970    8.92106775832729
H         1.91306434372185   14.56560051423617    8.17750551782084
H         2.87123281444156   16.03904864848715    8.04663238420147

