71
CSD_code = QOKXAR | q = 0 | S = 0 | Stoichiometry = C30H33Cl2NOP2SeZn | MND = 4
Zn        2.15941560097485   10.27873999184680   12.86052428558804
Cl        0.20228622780970   10.31174447204080   11.88520745899594
Cl        3.37726086422279   11.95459132257459   12.15749192257146
P         1.79519259494326   11.76137137235373   15.96779021004950
P         1.50633446259543    8.42256312019081   15.72444164096331
Se        3.11230457791591    8.20360001092555   14.32644208158139
O         1.81190793698890   10.78001853534413   14.83912340295906
N         3.17207181112319   12.66937232659125   16.10123755800284
C         1.81259427176291   10.70277974132138   17.45154510133404
C         1.81735177151245    9.31336187807359   17.30925671395294
C         2.07875198762863    8.52975048991765   18.43102683963269
H         2.14589897741028    7.45665640625955   18.33007166251835
C         2.25738947712123    9.10671292899029   19.67551984422857
H         2.45516307325085    8.47868597491339   20.53078949616040
C         2.18417966055969   10.48186534358458   19.82249075459206
H         2.30941109928095   10.93498971614249   20.79446220453653
C         1.98792506803033   11.27310334492589   18.70543981465873
H         1.98869031894561   12.35030125706137   18.79116181536703
C         1.09722220601214    6.73961440420532   16.33317311692738
C         1.90943971156324    5.64393276467057   16.08266533662956
H         2.83346739819933    5.78367499380247   15.53694631877472
C         1.53612694345382    4.38597377056538   16.52407032770152
H         2.17258828849772    3.53759088311381   16.32293696854552
C         0.34937556064795    4.21736424576170   17.21647395143671
H         0.05526548251759    3.23553619919583   17.55585299716884
C        -0.46442599340850    5.31040516630540   17.47242351362370
H        -1.39106675005344    5.18182931609246   18.01188796152052
C        -0.09493219947725    6.56700880022150   17.03293632120257
H        -0.72990700822487    7.41994071444191   17.23281796447994
C        -0.14058987830395    8.87075876004460   15.09742717761659
C        -0.96150564964164    9.80175194569112   15.71522459120873
H        -0.62261058319817   10.32771485502836   16.59857759787763
C        -2.21593070152893   10.05321750736548   15.19126721329422
H        -2.84947255103537   10.79308728591273   15.65903270373525
C        -2.65222249758785    9.36555470957036   14.07046930037832
H        -3.62745590125989    9.57581263440131   13.65833939847535
C        -1.84087135846142    8.41564837420395   13.47353923787483
H        -2.17774604955587    7.88542200091135   12.59671766780643
C        -0.58128955034934    8.16647615546942   13.98538228826759
H         0.07163768198580    7.43868419551209   13.51916217053572
C         0.28025340996206   12.75168419944089   15.88005190949460
C        -0.23670493751028   12.96217856678354   14.60683164510048
H         0.30223065432441   12.59850464015952   13.74355808207689
C        -1.44060516740915   13.62442761180321   14.45155981587154
H        -1.83671376794270   13.78453419857721   13.46083650755913
C        -2.13493638892551   14.06746074784023   15.56584051878234
H        -3.07651183063557   14.58268123502530   15.44711455664091
C        -1.62975582944315   13.83974830362028   16.83615439869290
H        -2.17762444842244   14.17323567640637   17.70541360329935
C        -0.42591122142326   13.17651938376318   16.99800751243131
H        -0.04733240148822   12.98339908862066   17.99136892628223
C         4.39300338653237   11.85588390063592   16.19994170974388
H         4.05682960506509   10.80973964870732   16.15952762117426
C         5.10028542944877   12.07765214184144   17.53625143906004
H         4.44306969011208   11.84727428723677   18.37162849910394
H         5.43632282223509   13.10768321848195   17.62866235809172
H         5.97005987978290   11.42852923340466   17.59405097010207
C         5.35422136794463   12.07642065384668   15.03690439953352
H         4.82178838852883   12.04510695373664   14.09003534406465
H         6.10269678303489   11.28827874679383   15.03797746517619
H         5.86644871346369   13.03216412857756   15.11567803234912
C         3.30678920702479   14.11789004454313   15.98190287231478
H         4.38252680585210   14.31180562855578   15.98658964134984
C         2.74366542088620   14.64582216638542   14.66595323949302
H         3.05802989022737   14.00915211537702   13.84179484796688
H         3.11020976713345   15.65379156706043   14.48496672400869
H         1.65733073507860   14.67688110100817   14.69175196082697
C         2.69565582055594   14.84334065208931   17.17995072434134
H         3.11685047495556   14.46880034040975   18.11080534567122
H         1.61620565649536   14.71630846580501   17.19870378751070
H         2.91189570195696   15.90679343862361   17.10983860934769

