47
CSD_code = QOKYAQ | q = 0 | S = 0 | Stoichiometry = C14H20CdI2N8S2 | MND = 4
Cd        5.74306171933922    1.64506809594050   -0.46724766988960
I         7.44973355146283    3.24787082396217    0.89559716790864
I         4.45888581132544   -0.72646939844763   -0.20858061085487
S         6.62571164916102    1.48496681048985   -3.23542718650749
S         3.88317401432205    3.61046139622804   -1.53153237656489
N         1.30908816355117   -1.99277920441506   -4.59427505663450
N         3.13454002895835   -0.09640146245442   -3.89049498212976
N         4.11508779578100    0.76203708759741   -3.50828212469381
N         5.66465284857600   -0.62001223801147   -4.48543384855873
N         8.72651351593921    7.92292818824608   -1.97637610255423
N         7.04256190866892    5.78974366527198   -2.15994378461756
N         6.16214663652706    4.75555421344520   -2.16109672000999
N         4.62504699859112    6.09812009278586   -1.11117782713371
C         0.21621417821365   -2.72048618326888   -4.89700100223637
C        -0.89349170310471   -2.03332843855765   -4.46338603875739
C        -0.44351089689154   -0.85033717313040   -3.86873604354715
C         0.94174017986140   -0.83979305221514   -3.95646937386238
C         1.91625503000484    0.12288556216358   -3.52806020597048
C         5.39409755861794    0.47115366961054   -3.76062140824023
C         9.72126499647520    8.82798692372082   -2.06000438702533
C        10.78625707855714    8.24062529507559   -2.70253764485495
C        10.41531037362204    6.92697781883290   -3.00577489299437
C         9.11967519691426    6.74151056531454   -2.54319306049785
C         8.24465458914381    5.60489454539359   -2.59030321157441
C         4.96344053869000    4.89531779199876   -1.58932678032544
C         1.47692484510545    1.28833251488404   -2.69601340589341
C         8.76693550914966    4.30043357130516   -3.10881938340772
H         0.28733618817337   -3.66843019374076   -5.39307410463471
H        -1.91304079052659   -2.34779394697700   -4.56177015514141
H        -1.06745530411090   -0.09466345909304   -3.43604119121137
H         9.61827407595130    9.81997227058066   -1.66614301429245
H        11.72664967943275    8.70328288249887   -2.92556330476102
H        11.02839369134016    6.20841585078425   -3.51121429285724
H         2.26771517243200   -2.24475579620975   -4.76243514066937
H         3.90512321083613    1.60783504226615   -2.96969476547508
H         6.61638664965008   -0.92539664118388   -4.58748939783878
H         4.89781084586350   -1.24268580839510   -4.68581857874739
H         1.73458045381674    2.23302621907577   -3.17560784931233
H         1.97505660078922    1.25957360878211   -1.72506578267316
H         0.40782945118903    1.26174430573215   -2.52815351760611
H         7.82926735550490    8.05074027838256   -1.54123218890535
H         6.41413252422757    3.84007899437227   -2.54568403448876
H         5.34640922920225    6.80119207528618   -1.07779148134130
H         3.78302134375983    6.19880132590180   -0.57257895109578
H         8.17643342034259    3.94951472416324   -3.95563538349895
H         8.71295989166809    3.54158083973169   -2.32608123612391
H         9.79984419393062    4.39340594668380   -3.41890766797648

