36
CSD_code = QOKYIY | q = 0 | S = 0 | Stoichiometry = C15H13ClFeN2O4 | MND = 6
Fe        1.89855632049551    2.24518005503076    3.35141634639514
Cl       -0.65610873099197    1.52845259096862    0.24878576752432
O        -0.20774439902917    0.72922299205286    6.36738243286985
C         0.98760898164635   -0.13846637978311    4.53460336110875
H         0.80993875319208   -1.16218798360039    4.83983123625551
C         0.26022339469576    0.92531413676602    5.26010594317169
C         0.21720320664637    2.19022100067797    4.52099525148130
H        -0.12191991536598    3.03165574399584    5.11753930729643
C        -0.13985896611411    2.10102683690992    3.13847552170952
H        -0.42317354732659    1.11150607828515    2.77335117077719
C        -0.85154596058864    3.15901302408932    2.40868636745266
C        -1.15791722471182    2.97830273029974    1.05456441602749
C        -1.82059809171300    3.93757110992375    0.31268044618139
H        -2.03145405034728    3.75692272415462   -0.73017890830987
C        -2.20318230078023    5.12264663001420    0.91614819910327
H        -2.72185682913741    5.87471389457098    0.34215168054846
C        -1.91235201882999    5.33363447786407    2.25355172239487
H        -2.20532621141003    6.25661612513239    2.73068076790896
C        -1.24906077262611    4.36795510457740    2.98431080196693
H        -1.03708807256285    4.55217985031708    4.02573150524586
N         1.88014137295512    0.21310913493192    3.66822161788830
N         2.57726071412902   -0.69742451401005    2.99001486179908
C         2.34228198092328   -2.11021421565684    3.18236357612046
H         1.28405469252182   -2.33438198684720    3.04122809473365
H         2.91033269278321   -2.65223987179191    2.43069648127888
H         2.65291563434406   -2.45257677718368    4.17602830897093
C         3.87615492732397   -0.35730032171026    2.46223026091001
H         4.06164129409890    0.70660264270076    2.60802854292499
H         4.65550263019623   -0.92555455801557    2.97748030274342
H         3.91864070586111   -0.58182740504216    1.39526110817403
C         1.93112101159773    3.97139989881220    3.12747779400886
O         1.98904853767124    5.10221732770421    2.95606340424714
C         2.37296167308928    2.19080621761613    1.62851094376498
O         2.69242346557271    2.31377146941650    0.53440484756208
C         3.18668451737455    2.47257602408004    4.56799567989209
O         4.02829058441663    2.70775619274929    5.31008083787148

