69
CSD_code = QOLGAA | q = 0 | S = 0 | Stoichiometry = C28H28N6O6Zn | MND = 4
Zn        4.26945031643184   14.57404248601692   17.37213193847326
O         2.44240757487155   13.83973460486318   17.82800315836433
O         4.17711536975286   12.51827284272859   17.81636964219280
O         6.21606820536614   14.75407290071733   16.93542608556742
O         4.70352522460088   14.47701354997554   15.38942015083828
O         5.38336379648812   11.12562099819123   22.20931181116618
O        -0.34231860714849   17.98784963164388   17.03214538888483
N         3.65705927777455   16.58789413059551   17.07448390610315
N         0.07719681682548   18.78967801319247   14.96620706628817
H        -0.90668063874446   18.90566162469307   14.78437688668896
H         0.71512866772796   18.85431420562442   14.19312900590526
N         4.41911361818250   14.93489287731325   19.55439215958247
N         5.59522727078204   11.07023892910230   19.95339019482650
H         5.96561321908223   10.13402793828231   19.96974467161397
H         5.28658416686107   11.46629726241344   19.07122064736695
N        -0.02657567318353    8.68365693926025   20.63278537418585
H         0.27064291192243    7.74204789945369   20.43402442838379
N         9.99668047374153   14.32443428799641   11.83861440980004
H        10.91803467447308   14.18208611085430   12.22225987208688
C         2.95650585277767   12.71639799305457   18.05551808615334
C         2.14872312761939   11.65114198380804   18.67785521360588
C         2.59028444038937   10.32867535901135   18.69154724661353
H         3.50811491250638   10.07705327051742   18.18265209285603
C         1.85201139224313    9.35486660086019   19.31929667360874
H         2.19502612879374    8.32943958066321   19.32002311939505
C         0.64915022780665    9.66881663776078   19.96881851828099
C         0.20650279810928   10.99714796502887   19.94406601633121
H        -0.71952051003371   11.26779988856817   20.42553889249897
C         0.94605280150284   11.96655649127776   19.30440291251201
H         0.60654126667781   12.99102221238409   19.28211954627037
C        -1.36391352067169    8.83897699709988   21.14368090275321
H        -1.38761430945122    9.62993049474079   21.89554464168803
H        -1.66969334242202    7.90914674505138   21.61784990382336
H        -2.08530809724613    9.08545163245277   20.35534851111681
C         5.91014081096195   14.57464928024848   15.72606996641163
C         6.97201930857473   14.50667670125232   14.70347608925820
C         6.64993796732406   14.31968318833511   13.36207007913783
H         5.60914656765899   14.22953739768337   13.09102968438902
C         7.63593047550005   14.24109014387015   12.40309389158375
H         7.36178247826825   14.08985914370330   11.37108723208623
C         8.98428605011316   14.34829513963684   12.76301153127206
C         9.30137809871588   14.53666924548313   14.11593458503644
H        10.34110204172345   14.61637529162160   14.40308455534858
C         8.31359149306768   14.61521158255101   15.06826288755325
H         8.55730987305880   14.75341335525669   16.11036090578007
C         9.81037242518997   13.88115981344862   10.48016674102949
H         9.43382505959223   12.85257619277951   10.42147672172363
H        10.76414216025754   13.93392713434105    9.95960947848628
H         9.10547065961948   14.53839857484806    9.96841464302548
C         2.37255512886312   16.84647401825712   16.89068022175337
H         1.67694349723788   16.08769509752583   17.21867848256556
C         1.91959085478016   18.01911105611882   16.29364587160403
C         2.86125811987207   18.95989161510939   15.88922694635415
H         2.55138620504067   19.89180836959377   15.43757718148375
C         4.20247978355415   18.69068168376746   16.10631758099622
H         4.96367719780909   19.39914983494662   15.81969767224228
C         4.55473369669443   17.48985573364345   16.70073046636371
H         5.58688318887851   17.23326730050089   16.88877567664101
C         0.44529791732752   18.24406897163352   16.15148626224289
C         5.07361267478330   13.84761496693953   19.93865005239815
H         6.00922127377753   13.66099912353635   19.42998419020958
C         4.59135376488846   12.97735575270240   20.91174701536985
C         3.43971158564671   13.33476935970620   21.60011868847348
H         3.04903377757969   12.67878138626164   22.36383244682590
C         2.80879390237012   14.52249130889444   21.26552230299660
H         1.91850165100371   14.84414543576044   21.78264195377654
C         3.30797889180538   15.26162672668249   20.20707413192770
H         2.80189001051790   16.15110013705620   19.85901603155006
C         5.22976157335070   11.63782885112649   21.12014875631792

