48
CSD_code = QOLJAE | q = 0 | S = 0 | Stoichiometry = C22H12F4IrN7O2 | MND = 6
C        -5.99148717156030    8.28435894931218   13.64223203862720
H        -5.21893900409895    8.66991899005312   13.00885763220715
C        -7.21017448121739    7.69459646841058   13.31671033293602
H        -7.64323593821087    7.49217765395885   12.36001260203404
C        -7.23828567888043    7.64743453909991   16.77050250274820
C        -8.38715340542532    7.11661875991112   17.34664331582244
C        -8.50963684982531    7.04959882431091   18.72134400496795
H        -9.39354962112898    6.63824481838193   19.17905406430409
C        -7.45705450095728    7.52527020078683   19.48361172380434
C        -6.30561686494904    8.05705376557811   18.92619472005115
H        -5.53096584230114    8.40471496197496   19.59157136503091
C        -6.16752220907723    8.12960732516219   17.54662317974156
C        -2.44560621706338    8.38212355544487   18.63250069116970
H        -2.23068203388864    7.34567083661227   18.47176857827589
C        -1.92465320185753    9.29208336419441   19.55183005660178
H        -1.18021007115698    9.15550915099508   20.30743420818756
C        -4.23207522398707   11.19000649756101   17.80883885574605
C        -4.32988722807015   12.52337195507982   18.18908767214942
C        -5.22662172030038   13.36438363693755   17.55744360574352
H        -5.31179209755439   14.39885744949016   17.84433144621998
C        -6.00911169976472   12.82784437619934   16.54931871759727
C        -5.92469828483546   11.50169329995981   16.15836887092194
H        -6.56980947168232   11.15748450253886   15.36512105057713
C        -5.02892379972549   10.63996910533226   16.78172327913762
C        -2.89387900091193    6.56816227809385   15.31147221548172
C        -2.35662702333837    7.88046855054539   14.69744444340736
C        -1.28415763382890    7.84922223731227   13.81615191928952
H        -0.84780647089754    6.88953049125182   13.58590715798968
C        -0.82440897755462    9.03565732055170   13.27583478203200
H         0.00709261120878    9.04627351283996   12.58734089882821
C        -1.45830016462707   10.21697677391165   13.63879833636951
H        -1.13702767257295   11.16749399887774   13.24355791341582
C        -2.51943259801644   10.16217658920309   14.52378329632186
H        -3.04049502838402   11.06032139867868   14.82796122884464
F        -9.39150647168905    6.66772369287983   16.58261803413597
F        -7.56245177332161    7.47197245090963   20.82268051947480
F        -3.55281140061894   13.01551183408900   19.16346538549550
F        -6.88287452784113   13.63437982686432   15.92149519545251
Ir       -4.58575770202224    8.69122038490665   16.40352309891307
N        -5.91600896922801    8.31044205992542   14.97158184693456
N        -7.04548724478494    7.75145472287420   15.39531491159597
N        -7.83804242988715    7.37964986260972   14.43963327329335
N        -3.34636608836519    9.04111585372436   17.91016426017797
N        -3.35037910855689   10.28248260629135   18.39364488901853
N        -2.51369285914974   10.46463438213784   19.37021322023956
N        -2.95999883998866    9.01940379700036   15.04332751067081
O        -3.89653557706927    6.69805943622611   16.07073399120121
O        -2.32115243103628    5.53487295100857   15.02022715681695

