97
CSD_code = QOLLIP | q = 0 | S = 0 | Stoichiometry = C46H40N4O2P2RuS2 | MND = 6
Ru        0.74634797554134   12.22664645597785    4.72199164818346
P        -0.60160145129810   12.52494934306728    2.87877767325739
P         2.16325750654587   14.03257323081785    4.53994804350116
S        -0.52079371685603   13.34640346306539    6.50069796051024
S         1.99228262307931   10.45046668235782    3.57643242340449
O         1.64760377343595   12.04329906152843   10.72189365154944
O        -0.35391812716016    6.25753557636486    4.63995811636262
C         0.65125503118870   12.50296082988887    7.38992228447590
C         1.67030309946853   11.92872746385720    9.51616463069624
C         2.62147766287095   11.21885087265302    8.71042288149316
H         3.42142011955235   10.71324696442242    9.22457449269593
C         2.53820002727802   11.18562145105262    7.35064816159567
C         3.53592803051915   10.43367124753631    6.53341207044356
H         3.70101148885982   10.94091608746539    5.58495952060613
H         4.47600551374011   10.34251075581916    7.06971033782773
H         3.16091875637710    9.43173294160722    6.31872626231876
C         0.76385279012934    9.56966451842313    4.34521540221218
C        -0.34178329729020    7.45807273125410    4.80118953542938
C        -1.29018245995290    8.26731392965702    5.51075638186052
H        -2.12294001916650    7.76121275948512    5.96933074835842
C        -1.16460508258729    9.62131400281245    5.60033343021749
C        -2.16075963054946   10.44130207015933    6.35146961380925
H        -3.12377701531845    9.93962973775501    6.37808086357699
H        -1.82017552157622   10.59143129458338    7.37720554070102
H        -2.26786766164052   11.41911562769146    5.88620712317673
C        -1.77440594526131   11.12445879546613    2.69403621911595
C        -1.23235551689635    9.95341239379638    2.16059523406043
H        -0.21014363357777    9.95871627126314    1.80080356262631
C        -1.98639465779437    8.79964198160881    2.08065584645422
H        -1.55097505575782    7.89662570797372    1.67843317303108
C        -3.30090004505231    8.80038806483562    2.52022983281378
H        -3.88843940077014    7.89641495967461    2.46726731509677
C        -3.85590516757803    9.96556567347704    3.01763321761861
H        -4.88640839765699    9.97783846315262    3.34223273204844
C        -3.09933874251135   11.12250086568936    3.10913223972884
H        -3.55500530968007   12.02389507664093    3.48974124663588
C        -0.01455600159525   12.51012023481975    1.14804340425408
C         1.33634492428701   12.43654767181514    0.84787314021985
H         2.05344409587231   12.39803657073656    1.65371967774443
C         1.75685691275770   12.38894656947417   -0.47091865815400
H         2.81233962168822   12.33159713789382   -0.69205163315476
C         0.82686766317470   12.40866752029599   -1.49464211187850
H         1.15194916671489   12.36975982210291   -2.52395563561137
C        -0.52798157839108   12.46730927777520   -1.19971914686091
H        -1.25529240817718   12.47169455316693   -1.99858620724110
C        -0.95044937131533   12.51410898764845    0.11360383294289
H        -2.00634761249464   12.55304348227507    0.34704871820891
C        -1.67139070885634   14.00273860023145    2.87895162539528
C        -1.55772108952006   14.99435976180847    1.90910959383821
H        -0.84364921579776   14.88576388291014    1.10601725839868
C        -2.34886545337152   16.12746906026106    1.97500977220957
H        -2.25317578680063   16.88959450096625    1.21539465505533
C        -3.25514440247129   16.29017426866841    3.00897159511438
H        -3.87639569171958   17.17273098628764    3.05177768430274
C        -3.34544804091259   15.32799746705824    4.00156473503396
H        -4.02693061515322   15.46221600482769    4.82875661546209
C        -2.54897258211000   14.19962416245897    3.94472871986652
H        -2.57665061130385   13.48543608718989    4.75627271392924
C         3.29645912187399   14.12270362327699    5.98176955354948
C         2.73582203974128   14.62880682094838    7.15618502477936
H         1.72661071057166   15.02305069032601    7.13442502073880
C         3.45573791763634   14.63894476545815    8.33422638836662
H         3.00588425805893   15.02116054791535    9.23884810919421
C         4.75444470792108   14.15512825718480    8.35564199104436
H         5.31494444560028   14.15358555815205    9.27814885718455
C         5.32886845625233   13.68382886029911    7.18903887010524
H         6.34788330653711   13.32463654654823    7.19489000264514
C         4.60630633658585   13.66286351029716    6.00721914089044
H         5.07739216013989   13.30196862172269    5.10564113669991
C         1.63247228602888   15.78013216012280    4.60556479799282
C         0.29017335725266   16.12240308825439    4.64538636086150
H        -0.45341818656594   15.34019356612852    4.62665673918215
C        -0.08899408130937   17.45166180465573    4.73233441887142
H        -1.13815590461339   17.70574430490103    4.76288244781849
C         0.87367506305301   18.44348361524453    4.78585691647737
H         0.58078593156396   19.48077746363461    4.85584908314811
C         2.21953032906125   18.10575246280023    4.76080114818392
H         2.97192405294859   18.87927025534261    4.81330164061683
C         2.60081699701906   16.78185633189889    4.67480525429196
H         3.64934993789940   16.51477306037488    4.66160315052186
C         3.27962278347911   14.05380230521149    3.09721112928772
C         3.22971500480778   15.06522122641456    2.14257283284813
H         2.53854070078157   15.88673212852172    2.26110340040535
C         4.05509156394006   15.01769253200335    1.03322555272127
H         4.00878228187522   15.80944161210485    0.29975206272758
C         4.93286871740427   13.96148006358099    0.85765235862389
H         5.58138983273630   13.93304174353528   -0.00565339412733
C         4.95948070202259   12.92914557490322    1.78109159466943
H         5.61825062116233   12.08569671158723    1.63513418606957
C         4.12832436609342   12.96777294513947    2.88496851424763
H         4.10603208531705   12.12783141771756    3.56574733932660
N         1.54587067192232   11.83161005582662    6.68244077313912
N         0.67230884254322   12.54153030786475    8.73729519975786
H        -0.03403067813438   13.08460255696156    9.22070282340991
N        -0.13001154233544   10.28044328884698    5.01410416659497
N         0.70095252056191    8.22619435289262    4.25278543012756
H         1.40987852533284    7.74107129784702    3.71463021040743

