87
CSD_code = QOLLUB | q = 0 | S = 0 | Stoichiometry = C38H38N4O2P2RuS2 | MND = 6
Ru        4.56059277592945    9.47848572378397   -0.29390033150804
P         4.30027156443295    9.88219956472640    1.93917606369792
P         4.58851967613439    7.20939048301789   -0.14492518288576
S         2.30243090260677    9.33451428835589   -1.26950471238930
S         6.94693789487794   10.03396025082347   -0.02447982510790
N         4.58338201235693    9.32679183055417   -2.44400743907531
N         4.95962255997297   11.54484031889058   -0.62158531962766
N         2.74273932479703    9.12165404669191   -3.88174736147751
H         1.73506375138508    9.05659744238151   -3.96965765934166
N         7.00875864943555   12.66144737953747   -0.44439669509943
H         7.99797241706498   12.60089302060385   -0.23254474162156
O         2.96103291072489    8.80649711977576   -6.11611433536217
O         7.19958957456008   14.90743015492112   -0.68346370893856
C         3.27898234475588    9.25636204508568   -2.65242838882061
C         3.51067222801625    8.98295482762550   -5.05092621087215
C         4.91684539028283    9.08055828342069   -4.78463336869442
H         5.58252011500650    9.00510175974175   -5.62794194434531
C         5.40703249385719    9.24405724913444   -3.52382056571189
C         6.26246677616287   11.54074407687166   -0.39607720411234
C         6.47455739608340   13.93709387387673   -0.70301201732323
C         5.06445690098547   13.89118716398966   -0.96744454962184
H         4.57674869150098   14.82426096240054   -1.19496926942048
C         4.35764582843499   12.72734170164359   -0.91468975798012
C         6.87443247766994    9.35260184063283   -3.27315155076844
H         7.43561643246323    8.92646253486681   -4.09946087892927
H         7.13772677710523    8.84532668695319   -2.34665680524446
H         7.15415053914852   10.40241078946221   -3.16922306688151
C         2.88793956862569   12.67888946831802   -1.17196401946789
H         2.44413256425227   13.66462056028076   -1.06653611389170
H         2.41170977837861   11.98222421197876   -0.48187007306628
H         2.70134511864448   12.32082351348454   -2.18564513753481
C         5.22111635789962   11.37250679278832    2.46791138301798
C         6.51973110505302   11.34341952981485    2.96486664204842
H         7.00859035601238   10.40036835485824    3.15484519689929
C         7.19669021579780   12.52630985582765    3.20907724080361
H         8.20646973046698   12.49261022003899    3.59196135641652
C         6.59337043281423   13.74612847470448    2.95427101496761
H         7.13147578342088   14.66550251093169    3.12794408184925
C         5.29618339205681   13.78343416674486    2.46866162245910
H         4.81985382554213   14.73184468010655    2.26904604432809
C         4.61603645840543   12.60556896858474    2.22673644096249
H         3.60255841800150   12.63175609619784    1.84649893590947
C         2.70278873614217   10.31609924443793    2.72344268099107
C         1.52041098527632   10.34266814714721    1.99583724601940
H         1.53095999060107   10.09043347646772    0.94424029924764
C         0.32750152949427   10.69345627971416    2.60487482775447
H        -0.58400062015125   10.70836262068530    2.02591745372711
C         0.30680449035109   11.02685449574192    3.94745988368115
H        -0.62249579426618   11.30003651472716    4.42505310381667
C         1.48598709974829   11.02186876302759    4.67662455454339
H         1.47638994715103   11.29615721148841    5.72148350926149
C         2.67731522846054   10.67483055379145    4.06970191436507
H         3.59566625293935   10.70056152358329    4.63942752609971
C         4.86961658849013    8.56416752975362    3.10818276652315
H         4.93454466755412    9.01913652032290    4.10088608137492
H         4.06364361268949    7.82363875613033    3.13503266329476
C         6.20165178177469    7.89284340137827    2.74230900851449
H         6.74161181934619    8.50659376336485    2.01640780018150
H         6.81221967569724    7.83739789535725    3.64644151845463
C         4.59583398754364    6.43660979206936   -1.79512047597027
C         3.37326241050466    6.22683612523232   -2.43166934543947
H         2.45455052959164    6.42209692120784   -1.89169429446782
C         3.33392871703713    5.77511661237546   -3.73742328912018
H         2.38322228101176    5.61944459615930   -4.22590293226710
C         4.51286160267633    5.53181775484662   -4.42346332183960
H         4.48026760760633    5.18998582868902   -5.44668673258314
C         5.73030577799728    5.73701131171408   -3.79654466045652
H         6.65082356448321    5.54852575631182   -4.32969014505358
C         5.77528442130449    6.19385656968864   -2.49127400367157
H         6.72953033755139    6.36538961273973   -2.01406367826412
C         3.25473482607558    6.25004517904773    0.64483443735281
C         3.22439666253066    4.86061520345768    0.55851831799710
H         3.98227685273826    4.33827311202605   -0.00927311604510
C         2.21603717398096    4.15431706275388    1.18616480343733
H         2.19289472859850    3.07634615215092    1.11833034004717
C         1.23292011399243    4.82443109175388    1.89918524990329
H         0.44722394872412    4.26594327563463    2.38624013494745
C         1.25484082095302    6.20651007255742    1.97973775935519
H         0.48739628178378    6.73388510415672    2.52726289586993
C         2.26399097107136    6.91534855020888    1.35245615847978
H         2.29250232316237    7.99695657676149    1.39269131206038
C         6.07233444116523    6.44007385279408    0.63677594111312
H         6.12500130191797    5.40087735249402    0.29475828031253
H         6.94641417916539    6.98087849283696    0.25905145872135
C         6.07529804009512    6.47964181488499    2.16341295336665
H         5.17490150157252    5.99314324541814    2.54753071819357
H         6.93247709198174    5.88954345837425    2.49931460786623

