38
CSD_code = QOLPUC | q = 1 | S = 0 | Stoichiometry = C14H17ClN4ORe(1+) | MND = 6
Re        4.61075828204470    4.32486895573718    1.25114662761293
Cl        6.17267317930582    4.91182043707887    2.85317730507295
O         4.87655455559283    5.62408130685555    0.24101210555488
N         4.77912334569427    2.38058170384573    2.61919160398880
N         5.90181150406376    2.84686071865182    0.20783301712299
N         3.25404158941536    3.19769943818012    0.54801152341997
N         2.95440736453049    4.99232998725961    2.35467643599900
C         4.04835389933586    2.12578075727103    3.70086068725411
C         4.24988047318261    1.01200158603436    4.49428866867768
C         5.25076472369722    0.11770936747916    4.14299953822223
C         6.01316382341969    0.38307650846102    3.01847750529537
C         5.75118001113131    1.53284444314630    2.28471438134058
C         6.60527796818076    1.92788972444655    1.11027587185613
C         4.99868940852537    2.19812193633493   -0.77630205971764
C         3.59193851406207    2.00571342556324   -0.19225199826527
C         1.87820571594602    3.35582159985092    0.93779594055215
C         1.78513930871641    4.45114554048956    1.96261553175140
C         0.58111917632692    4.90008934346098    2.48677373835610
C         0.58493882615764    5.92008153808606    3.42414239678651
C         1.79985493183047    6.46825618573921    3.81645111258310
C         2.96271435297023    5.97734338473052    3.25652744520740
H         3.27712865499603    2.84479457373754    3.94293496157156
H         3.63845611344847    0.85076575190774    5.36666997861158
H         5.43566296246259   -0.76436279949544    4.73561786963729
H         6.80702911238723   -0.28105794976494    2.71621117903595
H         6.96149312047706    1.03988282475116    0.57552410711319
H         7.47465135671432    2.45660676949565    1.52049608154060
H         4.91777773482171    2.87570845363193   -1.62915428381520
H         5.41389165851401    1.24349993139279   -1.11227284660386
H         3.55744281675746    1.11917856877170    0.46328862433734
H         2.88333452904654    1.83735460272601   -1.01184641016581
H         1.24654670325311    3.61756789287588    0.07494490738849
H         1.47611868472856    2.42066931225372    1.36110653281708
H        -0.34288881092078    4.45377409869272    2.15465070069579
H        -0.34207531633734    6.28287062782151    3.83985720782763
H         1.84523217537350    7.26715912528510    4.53800885516117
H         3.93577838010906    6.36486929534400    3.52980900307988
H         6.61172917003757    3.35870103187004   -0.31916384690375

