38
CSD_code = QOLPEM | q = 0 | S = 0 | Stoichiometry = C13H19IN4Ti | MND = 5
Ti        5.35487038673637    2.31794710232939    7.99851941122029
I         2.94996729737818    1.14810783107842    8.38949993635378
N         5.60781356892329    1.71964891212284    6.20091215601996
N         6.30568953066891    1.48440220032680    9.43567439077458
N         7.33980356657591    3.16229275380418    7.64279016847378
N         4.68677282668292    3.97756944066377    8.34681828135457
C         3.86421154276565    4.63360018929037    7.36114616298721
H         4.00471712099425    5.72611010866214    7.38511568380127
H         2.79321132540344    4.43226230247892    7.54268061341780
H         4.12500740089065    4.26701860597818    6.35783794241053
C         4.36914344900374    4.37598887776863    9.69556071244114
H         4.54449456194355    5.45374802762467    9.84445386080220
H         4.99149887074529    3.81468022803455   10.40629094987672
H         3.30774631158120    4.17626693539530    9.92704521662789
C         4.84032680487640    1.43323764983430    5.10917745410610
H         3.76685428396956    1.34569011053138    5.18840699257017
C         5.63867782334410    1.27266802786041    4.00482590737207
H         5.31648339291234    1.03382549108047    3.01002445888746
C         6.97138547502161    1.48025361490808    4.42774067932667
H         7.85515421983486    1.43106584420654    3.81999208169686
C         6.91269809052700    1.74646282990207    5.77349690319426
C         6.15119084372577    0.38055656478607   10.22389492594023
H         5.25447388187225   -0.21902123280143   10.18009320359058
C         7.26130755836567    0.20568840298731   11.01068646006670
H         7.42042099323216   -0.57379346984285   11.72994492682254
C         8.15867797452064    1.24820493544531   10.69027743843507
H         9.12884343714007    1.41872133342784   11.11763151994668
C         7.54182991396834    2.00808258609345    9.72660628359373
C         7.93731219810041    2.10572245213420    6.80502348576945
H         8.16499501762160    1.23887600616529    7.44605587567521
H         8.87639402709332    2.44367100546714    6.34055350248148
C         7.97132998029454    3.22654470136846    8.96566653679980
H         9.06960659014020    3.27814294904433    8.88849884750778
H         7.62310051701134    4.14324987121554    9.46725547167022
C         7.41859742221771    4.44119993303462    6.94549270339137
H         8.46372102858735    4.76141821541456    6.82799222789071
H         6.87589313838435    5.20556993468865    7.50625396518011
H         6.97227762694478    4.34381872749014    5.95226266152334

