71
CSD_code = QOLYOF | q = 0 | S = 0 | Stoichiometry = C32H30N2O4PtSe2 | MND = 6
Pt        3.49903697735515    0.93400548979432    3.01656199958476
Se        2.84190451545882   -1.23291233678986    4.26048305365388
Se        4.10804631003620    3.20655465979682    1.98581815127338
N         3.67363348130052    1.96560815528311    4.95963965480352
N         1.46726555345243    1.66883662043505    3.47407641097655
O         7.38896732485716    0.42743423360439    2.23176063563145
O         6.16853104993263    1.76144439006184    0.90608600412329
O         3.61223712284395   -2.33734896468351    1.77869573960538
O         2.43346968778169   -1.49441204248292    0.06830199382509
C         5.10563617943431   -0.03227244808428    2.08914482124911
C         3.93773727175771   -0.06592726948471    1.23887937176511
C         3.23881862773547   -1.33908777790486    0.95764836279612
C         6.23072354570944    0.82578858964236    1.67240487918195
C         8.53708796934895    1.18763730820160    1.88400536783985
H         9.33229269962646    0.86119578697948    2.54945870507397
H         8.33705037771175    2.25417718484954    2.00721793758079
H         8.81173881098179    1.00381872301471    0.84342431524448
C         2.99389284374214   -3.59433323940558    1.55619724510866
H         3.25613891231305   -4.21377656159907    2.40979576095066
H         3.36481040507960   -4.03359961847518    0.62757635479099
H         1.91061173636480   -3.47899589784888    1.48730933202927
C         0.40673672089599    1.50686022675067    2.69913169658624
C        -0.85750317591344    1.96238775424012    3.10652818349403
H        -1.70329755279879    1.80340724061744    2.45590375970997
C        -1.00656388708366    2.60809806468697    4.30704062739363
H        -1.97112795148091    2.97298663159275    4.62818084692459
C         0.11712274987342    2.80285600013980    5.12490546039633
C         0.07404728061232    3.47343048934329    6.37756091075856
H        -0.87813240649769    3.85274442827349    6.71775559726038
C         1.19345297330021    3.63619621195561    7.12250639258397
H         1.15777316041938    4.14796085128025    8.07277066885686
C         2.44900196641640    3.14054502109104    6.67688607563859
C         3.64428982480502    3.28852404712317    7.39630398269372
H         3.63560147128612    3.79863701983452    8.34827080548422
C         4.80875421187957    2.78429246270013    6.87424849611693
H         5.74266577524976    2.89041794312566    7.40401356442632
C         4.79742997850897    2.11569681810404    5.64122752913188
C         2.52517227635889    2.46591726969791    5.44246216428547
C         1.34398552852717    2.29410027770330    4.65617073857388
C         6.04026333801130    1.56722754819888    5.03836937346928
H         5.87842562050060    0.53501353459043    4.72295763425535
H         6.87620460664106    1.61130552781598    5.73054091350941
H         6.28440593127223    2.14645333789183    4.14559204433060
C         0.59984764021296    0.83682054482010    1.38893018896747
H         1.50858772243680    1.20592344444537    0.91044417490741
H        -0.24929853152935    0.99458916134433    0.73034195573328
H         0.72993701849476   -0.23668645966021    1.53249287830717
C         2.30750227772521   -0.54129520502158    5.96949135780943
C         3.24409808320319   -0.37930035445603    6.98375759209714
H         4.27380416005397   -0.65378752410834    6.80213174916825
C         2.85926202400867    0.12430034341446    8.21106792753240
H         3.59398239573234    0.25185729148898    8.99367648839876
C         1.53457323516713    0.45880953341533    8.44231347854878
H         1.23455939594434    0.85213842012835    9.40261854363299
C         0.59318477121288    0.27316003108577    7.44404000893864
H        -0.44418601837335    0.51695030271834    7.62533765413561
C         0.97626805480676   -0.22527807508483    6.21291172013180
H         0.24201012992701   -0.38251888211452    5.43411499798358
C         2.73071963649270    4.30836153595930    2.75585601015062
C         2.95719049970142    4.99443437941475    3.94311507640875
H         3.92492627496981    4.92247926442773    4.42180601597940
C         1.95927301185528    5.77109030494254    4.50205560976234
H         2.14377768761777    6.29924803316774    5.42714251400992
C         0.72672879552392    5.87197193988411    3.87943286614087
H        -0.05462131388778    6.47394416993349    4.32007427852286
C         0.50476158865491    5.21290661182714    2.68074248543768
H        -0.44957860120077    5.30541400052369    2.18150919230762
C         1.50299400539061    4.44196997437209    2.11749758876744
H         1.33958818388450    3.93704041768054    1.17594566289970
H         5.41266387558443   -0.95548519726940    2.58011543647949
H         3.94180415283866    0.61084830120214    0.38062298388111

