79
CSD_code = QOLZUM | q = 0 | S = 0 | Stoichiometry = C44H8F20N4O2Os | MND = 6
Os        2.23958341187166   13.08805790822582   11.25462483615353
O         1.41483932012660   11.86378776418561   11.91447246226998
F         7.32480403210341   11.74095555538107    9.63161260819577
F         9.63318152435376   10.32892288966024    9.70688578499893
F         9.96245058624486    8.35022296836367   11.55410281977082
F         7.95872405655485    7.79560865140993   13.31818768081618
F         5.64616145369773    9.20150156084072   13.22674634215430
F         1.45805777899926   13.31255611030444    5.78019198831156
F         0.90477033725772   12.26323352479534    3.34595393972536
F         0.42177318812719    9.59195542983413    3.09020862926109
F         0.48793311474008    7.98543560835353    5.29269290960790
F         1.02593390157371    9.04389434861320    7.72533923982721
N         3.19558915085967   11.75737928676812    9.98120640335439
N         0.72300277149387   13.33348470940026    9.85923490379845
C         5.15719904475491   11.27542821129801   11.37869854209745
C         4.37484370550741   11.13535642738062   10.22529484109652
C         4.69257221479675   10.29085264039202    9.10298079913927
H         5.55696610071688    9.66285386869766    9.01518011882132
C         3.69680983174014   10.44129128028481    8.19806692557644
H         3.61985508734228    9.97287179298686    7.23683040773828
C         2.74624208291377   11.36261962323904    8.76489485617294
C         1.56081990947118   11.78262456801698    8.14811798117669
C         0.62800555523434   12.68689607561475    8.67180756866119
C        -0.61834860349688   13.04799180230064    8.04740344164885
H        -0.97818575307123   12.67815695072331    7.10757202526950
C        -1.24184972027328   13.91665088732507    8.87810490201911
H        -2.19869552072319   14.37821976693652    8.73331008570682
C        -0.38474926558524   14.09749794327726   10.02104107014271
C         6.42523910023658   10.50551042795222   11.42587132864464
C         7.46429279048947   10.76943827947333   10.53500850388286
C         8.65659888857493   10.05255119195655   10.57019479968342
C         8.82708860513409    9.04231436085558   11.51339397913686
C         7.80262735199173    8.76115196686961   12.41387248527947
C         6.61909432217561    9.49198426629588   12.36316495607365
C         1.25843220580946   11.20526340954641    6.81462068141865
C         1.21492341584283   12.00622333154092    5.67451100768980
C         0.93622705835504   11.47428169839882    4.41876993853383
C         0.68981504508348   10.11009095522848    4.28579234234369
C         0.72504586593414    9.29120130182544    5.41159700815512
C         1.00818838515545    9.84304383200860    6.65740902071634
O         3.06418690065357   14.31237493783850   10.59468032276978
C         4.86387308945106   12.07852738296034   12.48827501233025
N         3.75608447042356   12.84248126083685   12.65011175139733
N         1.28346029624767   14.41857888810151   12.52812228661455
C         0.10423966662351   15.04066976225371   12.28402028732043
C        -0.67806227390191   14.90065909722761   11.13057485211408
C        -1.94602330290687   15.67070204873725   11.08330725734702
C        -2.98513955787526   15.40690121255333   11.97413377270252
F        -2.84578540695710   14.43538659020468   12.87755390164789
C        -4.17737402731759   16.12390286859985   11.93888782297896
F        -5.15401659579830   15.84764185938529   12.80216484884735
C        -4.34773046477934   17.13413534160831   10.99566074515578
F        -5.48302124622357   17.82634071685471   10.95489632490355
C        -3.32321058299465   17.41516826007767   10.09520859646003
F        -3.47918700069076   18.38069989921652    9.19085950835260
C        -2.13975066350524   16.68421911802646   10.14597406169445
F        -1.16676785815252   16.97457904766832    9.28240843983425
C        -0.21346432066639   15.88518048027049   13.40633241530711
H        -1.07782714897297   16.51322275025509   13.49412190106508
C         0.78225384409845   15.73464950327782   14.31127932893571
H         0.85919326469548   16.20303195682805   15.27253613706798
C         1.73278811745696   14.81327442717643   13.74446021369519
C         2.91819371188951   14.39325283773467   14.36126018433162
C         3.85104679686882   13.48902251597091   13.83756573729156
C         5.09742995963425   13.12797868223069   14.46194947097254
H         5.45724061907751   13.49778935125805   15.40179996391958
C         5.72098604334741   12.25940380634747   13.63120227800986
H         6.67785671550710   11.79788127640350   13.77597576044524
C         3.22051485438903   14.97052994225975   15.69481009976534
C         3.26394660777163   14.16946359919594   16.83484692843960
F         3.02079893546273   12.86314457541086   16.72902527519756
C         3.54257409848096   14.70128452660062   18.09065369271979
F         3.57395381901401   13.91223128139601   19.16339702566911
C         3.78899312943746   16.06546050181126   18.22377075904772
F         4.05697075472310   16.58348291468145   19.41941830091928
C         3.75383208999467   16.88445689311967   17.09804101246032
F         3.99094107238712   18.19021079683870   17.21708395702267
C         3.47076014998566   16.33273372360496   15.85215879729843
F         3.45307911100715   17.13198218861745   14.78430080287553

