99
CSD_code = QOLZAU | q = 0 | S = 0 | Stoichiometry = C42H50FeN6 | MND = 4
Fe       18.31940039744807   11.61826431732162    2.40983064329729
N        19.82827207787453   10.62299477381150    1.62374519341053
N        16.76779942204769   10.68250778030323    3.18553011568750
N        17.73997263941603   13.21144259440693    3.63426708184051
N        18.96285426796146   13.19429296570017    1.19631404174107
N        20.62662121112221   15.32008662989670    3.00917071378398
N        16.17641522318794   15.42865926914695    1.84237145439689
C        20.20786768102369   14.50698919447431   -0.50079035499330
H        19.30459540645866   15.01269403411467   -0.83788763040413
H        20.81702830669446   14.27019739431741   -1.36904746376082
H        20.77092851930036   15.19023673199455    0.13510340040160
C        19.88716507514299   13.24202848949328    0.26489528383883
C        20.68425238203585   12.13433073573485   -0.02167506400638
H        21.44726966009762   12.25753595252380   -0.77553900749709
C        20.71999943436251   10.94606857951198    0.70073919045781
C        21.93105633336770   10.08023865154305    0.40587621501099
H        22.83701891482127   10.65785336310329    0.58818561154170
H        21.93878914248835    9.78866762044309   -0.64369670300340
H        21.96498631320217    9.18686667366129    1.02221539459291
C        20.02062403116401    9.41500329567856    2.32497136582302
C        19.75553650876444    8.18293188144315    1.69503802100408
C        20.04620162039530    7.01145972966552    2.37439532605636
H        19.86264794863209    6.05818495204492    1.90552026513598
C        20.58967369283107    7.03767682084842    3.64794855544923
H        20.83462636543092    6.11301717128422    4.15012068399373
C        20.81602496984713    8.24772871667883    4.27482985510296
H        21.22728456191168    8.27152701624344    5.27413542047012
C        20.52665547991611    9.44242935619898    3.63141317269636
C        19.19699289068198    8.19303366365007    0.29657462081887
H        19.88199150929197    8.73611046622931   -0.35687371024654
H        18.26822796892572    8.76918205358869    0.31695697209607
C        18.93624765997129    6.82397991308032   -0.31685715654630
H        18.50995226788940    6.94836212326484   -1.31011228279841
H        18.23108893664626    6.25659735286087    0.28390347122573
H        19.86011410558634    6.25707576219731   -0.41390571415928
C        20.81095593376913   10.75241338727602    4.31337725112826
H        20.07107116083562   11.50202790462160    3.99062879446612
H        20.72544475557117   10.62295305963993    5.39425753612627
C        22.21689936569378   11.24746009432672    3.97211497580068
H        22.95443272661508   10.47847717777586    4.19593738668832
H        22.45825238437352   12.13916564403319    4.54526056916929
H        22.27999094844551   11.49522183152680    2.91647700780989
C        16.54100644046043   14.56668599135896    5.33127588902293
H        17.46280173401837   15.02926355225594    5.68002896880201
H        15.91390002085128   14.35160493943402    6.19236084160575
H        16.01492027077355   15.27847537204649    4.69506413109283
C        16.81212044962644   13.29366811797759    4.55975904504536
C        15.96663808625410   12.21950217000569    4.83481214501036
H        15.20485575945620   12.37073135497318    5.58480203618004
C        15.88561262605672   11.03744380645383    4.10599676395680
C        14.63901235853155   10.22015830062021    4.39119732282328
H        14.57128756619555    9.33223638734745    3.76986889548830
H        13.75815883989808   10.83522606539803    4.20863349696105
H        14.61513891912293    9.92335187620541    5.43901637336841
C        16.52962931293149    9.48541977561670    2.47971155787224
C        16.02764338205073    9.53641960681261    1.17250142758522
C        15.68981471068471    8.35586924251551    0.52647801875976
H        15.28137173871691    8.39851837628747   -0.47335948824118
C        15.86491886262661    7.13633979478379    1.15140800699927
H        15.58216876665425    6.22359223217216    0.64729655867614
C        16.40597295602635    7.08507715399916    2.42528566871974
H        16.54983474422454    6.12410383146188    2.89232971703913
C        16.74377377357638    8.24226199692736    3.10722654015050
C        15.79996686915881   10.85842189743532    0.49243676227939
H        15.89015399423518   10.72906792483043   -0.58808709509793
H        16.56532862835584   11.57786826198750    0.82426119984895
C        14.41116999207857   11.40618481321676    0.82296714430318
H        14.34706554531875   11.64953885340506    1.87958634232687
H        13.64639810990845   10.66812493293589    0.58680664712747
H        14.21078511163863   12.31027821409037    0.25344532159263
C        17.30105355928119    8.22741290526029    4.50613962457646
H        18.25250839866248    8.76544146460041    4.48734880114174
H        16.63803011389050    8.79703015083857    5.15974593875494
C        17.50554796439194    6.84797945639046    5.11755299095798
H        16.55937856545642    6.31883478848723    5.21292637295878
H        17.93568516446700    6.95337365541915    6.11134930418792
H        18.18764720341117    6.25344859923322    4.51638891937764
C        18.37793483858006   14.43235608944536    3.18943458513568
H        17.81104474116517   15.32400784783946    3.48792899277479
C        19.77883164069508   14.59701541263432    3.73072842225812
C        20.13239762115663   14.06863464739937    4.97047519947254
H        19.42293522570529   13.47699526668732    5.52724329344283
C        21.39835150805572   14.31971594387581    5.46810539031872
H        21.69205689659343   13.93749313483170    6.43610113767352
C        22.28079692815127   15.07366992116638    4.70896892097375
H        23.27811498361016   15.29198973738247    5.05823779407609
C        21.84022409757008   15.53927066379268    3.48144648328734
H        22.48696500934974   16.12833486673205    2.84270529605498
C        18.38099354021299   14.43883637556461    1.65235398820172
H        18.98746722479063   15.30649683623754    1.36098776029003
C        16.98783907528617   14.67029203437300    1.11512868522689
C        16.60593180143508   14.16304716469868   -0.12493714763828
H        17.28555303954021   13.54189681384330   -0.68674123686073
C        15.35069121789372   14.47308876114462   -0.61661352944707
H        15.03655929988334   14.10864074682720   -1.58506183148538
C        14.50604018508376   15.26306301689817    0.14873374572205
H        13.51823318521234   15.52743653511447   -0.19567521622339
C        14.97209937175631   15.70406724146910    1.37593301026809
H        14.35530782803597   16.31971995358898    2.01923356160357

