73
CSD_code = QOMGUU | q = 0 | S = 0 | Stoichiometry = C32H40Mo | MND = 12
Mo        1.33625645616159    8.91919869060864    2.39025373841439
C         1.72858518834377    9.79705746110175    4.68905053934110
C         2.82417546898063    9.03814341267555    4.18358105414934
H         3.85602268819615    9.36111455150122    4.19850194724211
C         2.41600565858747    7.70669561031708    3.94852065292442
H         3.07030189450416    6.85698024847744    3.84401616540212
C         1.01274267453751    7.65544755183216    4.22477373954002
H         0.45060442518731    6.74952444527803    4.42107144128720
C         0.62397217955439    8.94244491007092    4.69789089058812
H        -0.33798507550386    9.17212164678262    5.12647799784532
C         1.79008827719472   11.13533666279706    5.38907422051237
C         0.48070458002429   11.91174882384276    5.22380114463657
H        -0.35134772501023   11.38902242016824    5.68648887624183
H         0.24112534832117   12.05159858105778    4.17333324926461
H         0.56669671976519   12.88966330859839    5.69248284885334
C         2.00376890639354   10.81827234227657    6.88090625306473
H         1.19339463048806   10.19895719860264    7.25788960359121
H         2.03560852043051   11.73905888852227    7.45900511026025
H         2.93963488924578   10.28282075248076    7.02743171675348
C         2.94991995558583   12.01123669313755    4.90643937260629
H         2.99175293554729   12.92021027604735    5.50332223661524
H         2.81514393694859   12.29984559059672    3.86755933768517
H         3.90428269376977   11.50076942749966    5.01381741500153
C         2.94435717411942    9.36068618458986    0.76213288902544
C         2.82260372611611   10.43856279666616    1.69296032386633
H         3.64961643832908   10.88074138476647    2.23027477500644
C         1.55365202830934   11.06269160398360    1.52685482839208
H         1.24406300633013   11.99512769269687    1.97311532627660
C         0.88319192887293   10.37986808114961    0.50431306389007
H        -0.04006073347227   10.67629862871463    0.02512798117971
C         1.70565837953772    9.32184230838572    0.06222153474900
H         1.49267617874137    8.72424721460539   -0.81529744953989
C         4.25460006818709    8.74376532585248    0.31238689615224
C         4.06286569129037    7.85342740741942   -0.92029852850437
H         3.67447561855151    8.43058261273485   -1.75640618557541
H         3.38209245728126    7.03153551060700   -0.71532727669177
H         5.02036871031440    7.43035425359875   -1.21714012442796
C         5.20427275553895    9.89067663274803   -0.07660825480919
H         4.73273679582184   10.53968336523024   -0.81175588164510
H         6.11879649955948    9.48820134639132   -0.50676953625149
H         5.47328922508638   10.49077717601348    0.78886960924261
C         4.89875744460950    7.91481686806841    1.42689742861712
H         5.07524698643067    8.52114338960098    2.31104340023499
H         5.85454088959996    7.51650090186044    1.09242640864017
H         4.25498367789944    7.08340058474254    1.69714262364971
C         1.03142955275497    6.91898429234258    1.31415558686600
H         0.24447205640488    7.01696287016318    0.56408633238490
H         1.97140020209058    6.75259819387387    0.79319642825287
C        -0.91597049703562    8.83222985766991    2.17477034710765
H        -1.17960207007864    8.90053379787651    1.11751437920970
H        -1.24949433169402    7.85381094501609    2.51477170274237
C         0.75725236671673    5.69722899476792    2.09395509059351
C         1.80085335281712    4.88266149457919    2.54183465799777
H         2.81984800899624    5.14240815731710    2.28792091708223
C         1.56235415442697    3.73799967663413    3.27679384585864
H         2.39267450936925    3.13157668469477    3.61148090609446
C         0.26458836854120    3.35702646312428    3.57361601961636
H         0.07491909229595    2.46347933980361    4.15007778059621
C        -0.78773879492281    4.12020094539681    3.09583244173170
H        -1.80654573533953    3.81458204416846    3.29015223055216
C        -0.54489067904337    5.26344256463276    2.35899532748149
H        -1.38178801850732    5.82508181290086    1.96850842737958
C        -1.69065014533986    9.84559584264797    2.91761738475647
C        -1.76549571808718   11.18372961580428    2.53009766815981
H        -1.24758861382619   11.51592250349162    1.64395542098372
C        -2.50759222557502   12.10456952117027    3.24647071740167
H        -2.54261589818169   13.13438379114519    2.91814682123348
C        -3.20946546216012   11.71711539373967    4.37421688827913
H        -3.78712238709241   12.43713558058358    4.93495425250293
C        -3.17759120956523   10.38753981987779    4.76103812574351
H        -3.74121040621058   10.06255106207372    5.62496368636957
C        -2.43831535192179    9.47076711636335    4.03983096347733
H        -2.44795429413198    8.42998085343946    4.33879224624876

