47
CSD_code = QOMGII | q = 0 | S = 0 | Stoichiometry = C18H26Cl2Mo | MND = 12
Mo        5.55322194753251   10.57028518859965   12.66012567089052
Cl        7.48240934641651    9.47810177530582   13.74434379470660
C         4.91220402643509    9.97096540391618   10.55256948111946
C         5.89248911870889    9.03318164434982   11.01610532843023
H         6.80654845280526    8.76757077905897   10.49629413146654
C         5.32056512767722    8.24678280875974   12.05830943385811
H         5.79426934102645    7.39585836803083   12.52760068021828
C         4.04314794545355    8.73047691525873   12.31715246841983
H         3.32238633422600    8.29675689149670   12.99347551335238
C         3.79352108981068    9.80790593636180   11.41477827542348
H         2.81871325142587   10.25272842670515   11.26168486859941
C         4.90531292665563   10.71802722474913    9.23798966183774
C         6.25141224209110   10.58211834854270    8.52288656640077
H         7.05209370628216   10.95409411305294    9.15571853319984
H         6.23924445156627   11.16615576999319    7.60579707418169
H         6.44992661655672    9.54490566496663    8.26194837347729
C         4.61532384170887   12.20284765464922    9.47218606225271
H         3.64650045694423   12.34247281223472    9.94600731437754
H         4.60711993336885   12.73409054808195    8.52363611906907
H         5.39191633524781   12.62948431849977   10.10137907183172
C         3.80560090778149   10.10430978530867    8.35490668228525
H         2.81985480836700   10.25883818563378    8.78742786147745
H         3.96569847757709    9.03439563286431    8.23847038398315
H         3.82301502773869   10.56508371559286    7.37032834982340
Cl        7.48023052470162   11.66640351641359   11.57970995894989
C         4.91239211751468   11.17093351711181   14.76720164377397
C         5.89291618418651   12.10838055325327   14.30340086125049
C         5.32119347559388   12.89456280864955   13.26087843394602
H         6.80668991936562   12.37435023856285   14.82354998493661
H         5.79463686241464   13.74589144189750   12.79204075944932
C         4.04350343457600   12.41129935527421   13.00250691342722
C         3.79370063285071   11.33409354919975   13.90504946629892
C         4.90535554787357   10.42398164742140   16.08186095113358
C         6.25152404896457   10.55978372452010   16.79684518974487
H         7.05210350504489   10.18777200856274   16.16384186901163
H         6.23938509295687    9.97572909949552   17.71393318620649
H         6.45009282432203   11.59697640224348   17.05784399706774
C         4.61528832892017    8.93915192653498   15.84777092704905
H         3.64644798785205    8.79953867416995   15.37398884446073
H         4.60709960910533    8.40793840226373   16.79634212693257
H         5.39183633029259    8.51244796386781   15.21856493601456
C         3.80569676017286   11.03771550993226   16.96502515848041
H         2.81992385586940   10.88319803828174   16.53255887582742
H         3.96578483415164   12.10762599093704   17.08149791664738
H         3.82312394311131   10.57691987889637   17.94959974092500
H         3.32258066339880   12.84533884374793   12.32654648875015
H         2.81879780335721   10.88952899674732   14.05832006903229

