47
CSD_code = QOMGOO | q = 0 | S = 0 | Stoichiometry = C18H26Br2Mo | MND = 12
Mo        5.81251353818710   10.53817551284159   12.56190450114262
Br        7.84073245687747    9.28841364183477   13.67630559735736
C         5.10933482027363   10.06902450701273   10.42192879018569
C         6.11230365071195    9.11177988986976   10.78908354212546
H         7.01027021698917    8.88959900843635   10.22061150095010
C         5.58264003666932    8.25144473361644   11.79236102565998
H         6.07261973243030    7.36821076709626   12.17985468342605
C         4.31768631805872    8.71439950395601   12.13814323633376
H         3.62749720260599    8.23270913664741   12.81369600909764
C         4.02782849269758    9.84232373616943   11.31495150460224
H         3.04679063667030   10.29091867900380   11.22941986484933
C         5.01729088549656   10.85342559035184    9.13040377618715
C         6.30542614252995   10.74064671781408    8.31073847191811
H         6.49661515484396    9.70683590626207    8.03124965640510
H         7.15781871271258   11.12473241715848    8.86232726451649
H         6.20574690071692   11.32361394591406    7.39856923557769
C         4.71871464456004   12.33060722830244    9.40248516423192
H         3.78274769108182   12.44653764977022    9.94478044774195
H         4.62970643860923   12.86762766790849    8.46165018564022
H         5.52528863385438   12.78211186270227    9.97354311808149
C         3.86594208176382   10.24300025361021    8.31079586966729
H         2.90752364319245   10.38462889511018    8.80511199454637
H         4.02478171369348    9.17589627983715    8.16790411489870
H         3.81851565594522   10.71803632810558    7.33409393793442
Br        7.84091561276882   11.78725356037688   11.44737974829196
C         5.10933560220519   11.00695172586372   14.70205751961614
C         6.11226635016972   11.96425239102570   14.33495685756830
C         5.58253909246423   12.82468172561487   13.33177330674919
H         7.01024811947571   12.18640800685265   14.90340906272542
H         6.07251484361907   13.70792196650881   12.94429161947790
C         4.31761998813579   12.36167576732270   12.98592807935997
C         4.02781932683328   11.23366550552828   13.80904040354175
C         5.01729222382073   10.22255475017455   15.99358539180270
C         6.30541858402327   10.33534166707621   16.81326615714060
H         6.49660456079815   11.36915381689630   17.09274817156200
H         7.15782292831222    9.95125111389844   16.26169740953858
H         6.20572323582057    9.75238423754104   17.72543951800581
C         4.71870831011400    8.74537572839716   15.72150753209938
H         3.78273836440211    8.62944567077690   15.17921633008188
H         4.62969906017856    8.20836534292385   16.66234870140702
H         5.52527762599985    8.29385905800206   15.15045015549126
C         3.86594663708625   10.83297989123049   16.81319789906704
H         2.90752870550075   10.69137118030713   16.31887865073890
H         4.02479774353729   11.90007900416608   16.95610645069321
H         3.81851412935577   10.35793047408480   17.78989072115870
H         3.62743511719594   12.84335719563130   12.31036710511822
H         3.04679843701090   10.78504036046873   13.89454971568718

