47
CSD_code = QOMHUV | q = 0 | S = 0 | Stoichiometry = C18H26MoS2 | MND = 12
Mo        2.69245965964522   15.33023884588918    2.61391337678781
S         3.91815959324738   13.29562300291683    3.25412867932409
S         2.79066845410672   13.08849768405297    1.60498025090750
C         3.42527464796301   16.27732168149660    0.64552731590301
C         4.51079562860642   15.62119232735563    1.30593077568026
H         5.16636543260667   14.87844179198879    0.86020132274776
C         4.82108242632025   16.32513367274063    2.50892782036109
H         5.66611514327137   16.12730327493281    3.15015935654581
C         3.90436893809533   17.36619325668668    2.63252694920916
H         3.91667746222226   18.14023288595633    3.38656704715929
C         3.03449973032303   17.32914912131311    1.50526798911238
H         2.31802087285200   18.10513476358677    1.26761338809554
C         2.91202896641814   16.03840132189525   -0.75312284554842
C         1.42382572290826   15.67989794330153   -0.70414283751997
H         0.84741727108797   16.46523672555852   -0.22258068209256
H         1.03841426865996   15.54276086207408   -1.71138188301058
H         1.28863812407688   14.75248641249991   -0.15439054708657
C         3.11167220219538   17.32333382338161   -1.57222858642169
H         2.50579971286152   18.13679120139778   -1.18061717395161
H         4.15556874108672   17.62940999815654   -1.54893490785943
H         2.82484628508811   17.15174590213242   -2.60682433611606
C         3.67445102556004   14.89325005016445   -1.42427430334238
H         4.72914336500216   15.13896954957709   -1.52965902955643
H         3.57509388655185   13.97839260021481   -0.84402292635950
H         3.26619442385852   14.71178149188539   -2.41549510062793
C         1.64815207691671   15.37699126450852    4.66898646367815
C         1.34385167295050   16.58895803481649    4.00890299949762
H         1.51552092000591   17.58253437868433    4.40295716734444
C         0.55125854387380   16.31426792223379    2.85789036431771
H         0.07261329005176   17.05855553716292    2.23749327951272
C         0.38054185867340   14.93503329030891    2.76610193588654
H        -0.23883060321697   14.40524974545712    2.05896587293851
C         1.08681590438423   14.34239835565597    3.85674240548254
H         0.97984108650869   13.30036400058308    4.14469338097654
C         2.27178287586970   15.24542035654062    6.03660266078146
C         3.69947290992796   15.79897637421185    6.00924632286716
H         4.30617900452994   15.21275569648505    5.32457221437613
H         3.71066313611780   16.83835962891234    5.69245525906779
H         4.14301940145977   15.73960487272600    6.99999335187684
C         1.42269504745051   16.04319586183284    7.03859657146457
H         1.43735596817142   17.10562068689795    6.80773741584298
H         0.39009310453362   15.70078996764679    7.01755233951988
H         1.81149012976349   15.90716032006335    8.04488595470843
C         2.31778779829221   13.77980154974807    6.47552021133927
H         2.88839498554682   13.18711273796729    5.76372531175620
H         2.80182030606984   13.70247052551821    7.44603911308141
H         1.31399859754196   13.36905870084118    6.56157029136833

