58
CSD_code = QOMHOP | q = 0 | S = 0 | Stoichiometry = C21H35MoP | MND = 11
Mo        4.44123958794308    2.77493699969398    3.50090365892341
P         2.10746290473604    2.68979752612050    3.02597233965709
C         0.87268055789612    3.33167663114819    4.22377654223115
H        -0.13060364895867    3.21847980116520    3.81091761758483
H         0.94971481289290    2.75584053336513    5.14470118316615
H         1.05349288825490    4.38246942720645    4.43984304659082
C         1.56156099860788    3.62214171812128    1.53531808647465
H         0.48053585439818    3.57903770110340    1.40448241889272
H         1.87706067558089    4.65868022217248    1.63458564379620
H         2.05117999103432    3.20076288671919    0.66057044856544
C         1.27475153758106    1.09037368710446    2.68396188526288
H         0.22195815102023    1.26608613800455    2.45893442732977
H         1.74060742327980    0.58288619789172    1.84220939077179
H         1.35463846134928    0.46236814182342    3.56993127411531
C         5.65209798089402    2.10462776649882    1.67328383557429
C         6.34274199136325    1.75825062624311    2.86985752859957
H         7.37407223496743    2.00146056808117    3.08658241807155
C         5.59575206739494    0.76941700550147    3.57050516690398
H         5.93458245669419    0.21600262132543    4.43215962127657
C         4.41770968516022    0.53536489838376    2.85952438853936
H         3.72522297710806   -0.27622939104694    3.03751340894646
C         4.44001597207784    1.37707776440389    1.68894681083699
H         3.78102674095211    1.25125053425064    0.83620693231680
C         6.15770718954267    2.93461240266106    0.52352493697501
C         7.40587872091021    3.72786838888884    0.91725305555664
H         7.20592489244759    4.35540031389596    1.78068034802426
H         8.23125832704192    3.05983068342668    1.15381343167320
H         7.71585923872139    4.36683450200052    0.09259416252010
C         5.06447401093809    3.90587682265349    0.06930448834379
H         4.68560406713861    4.46109144493042    0.92159158082249
H         5.45558071468429    4.60534932737298   -0.66625776801701
H         4.23626698252351    3.36737016407529   -0.38289359514196
C         6.51957609650250    1.98831441981333   -0.63283092823318
H         6.89568665429273    2.55620449766925   -1.48146217327213
H         7.28705893581413    1.28321264860191   -0.31906879249193
H         5.64847215941832    1.42166065249501   -0.95460489983920
C         5.05240933298599    3.60288970107041    5.57059748444271
C         3.76099857645485    4.08077227760042    5.28859574514698
H         2.91733280726163    4.03528109326804    5.96367654773617
C         3.82242824055711    4.90833549329275    4.11053525734797
H         3.04014622323993    5.58533690971812    3.78370153653516
C         5.15721663313948    4.94594231403778    3.68059660142503
H         5.55601680516150    5.58231410484784    2.90722064262015
C         5.91095437637157    4.10967954199979    4.54739520607496
H         6.99193342215647    4.08120674202084    4.57151846565127
C         5.43139918391900    2.84004367470087    6.81235244209466
C         6.87115471544809    2.32626789043869    6.73768036985976
H         7.57553390533432    3.15495859269591    6.70334666445429
H         7.09813774633153    1.72720699653567    7.61747856428265
H         7.01611295504406    1.70874466844369    5.85586852248683
C         4.47355862964458    1.65818255293449    6.99353234846139
H         4.44720500987998    1.05890356519024    6.08933249981765
H         4.78985181320649    1.03418977366845    7.82657242541309
H         3.46475998862720    2.00818836515378    7.19299213594574
C         5.31169459021725    3.78883162979435    8.01624269314635
H         5.97016325817231    4.64629431938609    7.88995786623160
H         4.29267063623459    4.15448748101337    8.11949624683539
H         5.58787085840811    3.27105603843413    8.93257781263335

