61
CSD_code = QOMHIJ | q = 0 | S = 0 | Stoichiometry = C20H32MoO6S2 | MND = 12
Mo        0.52708317965359    5.75637105856288    2.46142411732094
S         3.36227082592957    4.39517137767624    2.87418271278711
C         3.98212541476720    3.29490750797598    4.19023529671818
H         3.78638415441219    3.76157486730326    5.14505558016866
H         5.04454486334002    3.17090232472907    4.03407664815963
H         3.47018568340273    2.34725174235145    4.10160282356505
O         1.88894419532016    4.39170424945820    3.24899003913506
O         3.67129933367288    3.70991101991326    1.64786498411393
O         3.98410799176103    5.67327265482735    3.12157788761065
S         2.21875582356605    6.51208662183674   -0.02593035729956
C         3.96960089810001    6.89213983962088   -0.15974821820113
H         4.23422368277907    7.51273886659739    0.68443604281948
H         4.16549763815755    7.38318755685912   -1.10320079615183
H         4.46641313727174    5.93399622522442   -0.09048094078193
O         2.16790001021124    5.78197769622619    1.29242075952739
O         1.84760362481920    5.66390379502365   -1.12753702660392
O         1.44346225075172    7.73003091033734    0.07564148941869
C         0.33009898099547    6.66617183189758    4.50864149325171
C         1.62052829195312    7.06289172256130    4.02541173950839
H         2.56746619920068    6.87498027251622    4.51340451511745
C         1.46452489344093    7.94213726196137    2.93520490634839
H         2.26401295478551    8.44393848142328    2.41236778930322
C         0.10518537522847    8.06320599785878    2.65190801947004
H        -0.32410804497469    8.72931421182504    1.92066489276137
C        -0.61256535766354    7.29442670859305    3.62643349955682
H        -1.66254836180384    7.44134364651214    3.85446314308034
C         0.05387932565894    6.14781780169710    5.90454335530580
C        -1.20563466815808    5.27867771560470    5.93902158006817
H        -1.44369483550748    5.01590377212743    6.96744887009530
H        -1.03016118015490    4.36383476588602    5.38120709323662
H        -2.06158753383282    5.79886944906388    5.51694459897906
C        -0.13616481011342    7.36543741792612    6.82378610129176
H         0.73189807600656    8.01785903495459    6.77209702881800
H        -0.26737501706884    7.04200077507578    7.85365225682603
H        -1.01137410144091    7.93734798646551    6.52526649311834
C         1.23635666781763    5.30469640672540    6.39202848205686
H         2.10078222258970    5.92873807140033    6.60194672442505
H         1.50373807414617    4.58039462988124    5.62651571785744
H         0.96883845126888    4.77708100441046    7.30480342864633
C        -0.42543177111421    3.59602423147734    1.75554826861843
C        -0.04997848261754    4.35166368230216    0.62723505473324
H         0.59569277473971    4.02386325297614   -0.17629142891662
C        -0.74972818464806    5.58397717905246    0.61944544579337
H        -0.80063818795522    6.25612247217079   -0.22230386354324
C        -1.57971965601036    5.59619741410460    1.77979740858390
H        -2.45765988229747    6.22076456258836    1.90396434886935
C        -1.33447062136001    4.38306223845591    2.51001184567745
H        -1.96942203884590    4.01083708490906    3.29979766870540
C        -0.10645770754745    2.14145670743540    2.00697912472529
C         0.07208055780108    1.87557314905361    3.50592685289618
H         0.38631968225079    0.84682102875609    3.66629588127989
H        -0.85863787623749    2.03133740993200    4.04668230361201
H         0.83032803638068    2.54536684379228    3.90148402279582
C        -1.30777616485401    1.33145911377877    1.48307166059273
H        -1.12001252804174    0.26877885612330    1.61563009283521
H        -1.46570571650550    1.52686969909534    0.42516776618582
H        -2.21706659146649    1.59328614153218    2.01943737919487
C         1.15551428111661    1.71822398367240    1.24991043234170
H         1.43980605599199    0.70822241004402    1.53877180149187
H         1.98485520537973    2.39120448630655    1.46468527513547
H         0.97971050555318    1.72189077155158    0.17657988696004

