79
CSD_code = QOMJEI | q = 0 | S = 0 | Stoichiometry = C34H38Cl2O2P2Zr | MND = 6
Zr        2.89786108844440   11.96074412065485    7.89248366599273
Cl        2.05796718995905   14.04251232259775    7.28557863573534
Cl        1.17425343422136   11.03125835045773    9.14649702935476
P         4.59779361526914    9.83046545246386    7.99712683370520
P         5.22880219286043   12.66702837792296    6.63753321207220
O         2.57133604612474   10.97991381601091    6.30131540063063
O         4.18497608068379   12.45350890944479    9.20360201408995
C         3.36717204965821   10.22699280545318    5.56446360783189
C         4.40564388170946    9.51297587465044    6.20529895428101
C         5.23320083169583    8.65569996150685    5.48813879266061
H         6.00272305358428    8.09742182694629    6.00388303594928
C         5.05472022029520    8.52599999145460    4.12756397535134
H         5.68547472736527    7.86145584478569    3.55665706982965
C         4.06747385793568    9.26177474928185    3.48329457178780
H         3.97322495827375    9.14866979397377    2.41593301082006
C         3.21586267933395   10.11866471668951    4.16056392430237
C         6.35659437335933   10.48834350700699    8.01920680426132
H         6.48719127988738   10.99609794006018    8.98104565986755
H         7.05835805110291    9.64903007431213    7.96977541340130
C         6.63459405468564   11.46568422433347    6.87576738339993
H         6.72973026717594   10.90556901392260    5.93955201084207
H         7.56377606622940   12.01686807868544    7.05833564407219
C         5.54465583605321   13.89211190175829    7.96362108057979
C         4.80829380810418   13.62887811006579    9.13829619412818
C         4.76751750683134   14.58004934843306   10.17571034230596
C         5.55465884109822   15.71377301795663   10.02903540880808
H         5.56429536958553   16.46121045075863   10.80519700104194
C         6.33567499497725   15.93549747817177    8.90344921510369
H         6.93946007388519   16.82808100711319    8.84063168631960
C         6.31253365736979   15.04231041685008    7.85011713525515
H         6.87400705451818   15.23525869778413    6.94717886838179
C         4.82310640640396    8.13520951708450    8.63225857351665
C         5.72931541913699    7.83907510407254    9.64537934833653
H         6.36629612686581    8.61481346546510   10.04594170195836
C         5.81346878983079    6.55213931529962   10.14691149112779
H         6.52583942526033    6.32624828967172   10.92690678998253
C         4.98389347157748    5.55726748119437    9.65722786831280
H         5.05289711366308    4.55417323561188   10.05063049779852
C         4.05581105844733    5.85444526554405    8.67157204320315
H         3.39700308177419    5.08395829842732    8.29939334459177
C         3.96824841766912    7.13799009672279    8.16764860458818
H         3.24026865733844    7.37937839497686    7.40414512028060
C         2.15338317526358   10.95565088957561    3.46135866087075
C         0.76647488805243   10.59425767866302    4.01277239526890
H         0.70562245095784   10.79986967737761    5.08015585324244
H         0.55957102189675    9.53811695934936    3.84902828796890
H         0.00231202601359   11.18035830458697    3.50691023308257
C         2.13734692535236   10.73250436474578    1.94579531903725
H         1.36584954550168   11.35737313810389    1.50128885160891
H         1.91040110349045    9.69701494185146    1.70248884276637
H         3.08987615826390   11.00685992939135    1.49794931460618
C         2.45186730490107   12.44142372187049    3.72090401038526
H         2.39307227314554   12.67899053500870    4.78588682527935
H         1.72819200191759   13.06148754803859    3.19645735205095
H         3.44870941501186   12.69408303311017    3.36073780666464
C         5.72259700254226   13.63737717735735    5.17813248088253
C         4.88559025495124   14.71852765321409    4.89401118501196
H         4.04651601629418   14.92045945928357    5.55098143229417
C         5.12565307410899   15.51495129242541    3.79179860205192
H         4.47822333209409   16.35263318288437    3.58080715178608
C         6.19332837986724   15.23180073910173    2.95262836671169
H         6.38138012584978   15.85065884026248    2.08794178405464
C         7.01457961780597   14.15049555578608    3.22060166547299
H         7.84314041783751   13.92609747005544    2.56463042508761
C         6.78180642129930   13.34992485889104    4.32733907960629
H         7.43159753329068   12.50986656429365    4.52029843556386
C         3.83285059380328   14.35132121265822   11.35670140370754
C         4.23120649589350   13.06716916149875   12.09853149327146
H         4.16239246721740   12.20270886122326   11.43972152833330
H         3.56660013727056   12.90692217373221   12.94468788391688
H         5.25222527596543   13.14643244930837   12.46852190007917
C         2.39583263849919   14.21951763451623   10.81875188610443
H         2.26580905412253   13.29538545771537   10.24106076433316
H         2.15271426046404   15.06964504584411   10.18049369561635
H         1.69191575940746   14.19640604033875   11.64878827925083
C         3.86457148400715   15.51409649836280   12.35327506784656
H         4.85864545960778   15.64368237387171   12.77545653520925
H         3.17851902752726   15.30489487437723   13.17119082397735
H         3.55205177055059   16.44198605573633   11.88044541074886

