58
CSD_code = QOMKAE | q = 0 | S = 0 | Stoichiometry = C24H32MoSe | MND = 12
Mo        8.32111512315458    5.17585790371314    3.88323835614656
Se        7.84534420447964    2.68543848490436    3.32786331125235
H         9.77798462463761    4.62925816151997    3.71607121062085
C         7.03741955340582    4.91878235231674    5.76395630326688
C         7.36698925291636    6.29211389791446    5.59205253064646
H         6.65623795003382    7.10729370646577    5.56656865679301
C         8.76808181768576    6.46837337287704    5.77489654729010
H         9.28555700512489    7.41582421141245    5.83787803979764
C         9.31669840286456    5.21494347059992    6.07504113857349
H        10.34540978799170    5.01737227551116    6.34404555223623
C         8.27876342434872    4.25923148537401    6.03912642889296
H         8.38591011501425    3.23046516323311    6.36360616836408
C         5.64619690647075    4.37114961850227    6.00169749206056
C         4.79574898405065    4.49702800867961    4.73514718138899
H         3.77994757464049    4.16089329368744    4.93028129878683
H         5.21786949963052    3.87225842188322    3.94958254341887
H         4.75230658916084    5.52727360359079    4.38994396493411
C         5.70045670553114    2.89612336986711    6.40680719000459
H         4.69047601144254    2.51484603022547    6.53809445290815
H         6.23703056515361    2.76991690194766    7.34475335086027
H         6.18738611250421    2.30625391169439    5.63152179390243
C         4.99967166479791    5.17562311755332    7.14138594346993
H         4.04261713380444    4.73485903864364    7.41027412708378
H         4.82582237519755    6.20768862847890    6.84666558767726
H         5.64082127505102    5.17189540804152    8.02046278863009
C         9.13512032097848    6.26478795321793    1.90218150299576
C         8.46063632758716    7.20964075837888    2.69456294521421
H         8.86094004741673    8.15660345100544    3.02990562958226
C         7.10400581596350    6.81067794644995    2.83224052416675
H         6.31276393858254    7.43767133622154    3.22059585927486
C         6.92322527170516    5.59605404638727    2.14592758212395
H         5.98396047377134    5.13123420729252    1.88536970616751
C         8.19701362494566    5.24136973576644    1.59466537776068
H         8.34152813173925    4.46296683806882    0.85332268036703
C        10.53572290143306    6.40372888974207    1.35890879924396
C        10.47495666549299    7.43440649577770    0.21815074422366
H        11.45906393291896    7.55396743865225   -0.22836250399826
H        10.14260742093347    8.40167806091292    0.58882219719966
H         9.78120253432517    7.10615007955768   -0.55313779829042
C        11.05206626137777    5.07111644979544    0.81018802833186
H        12.08778542632613    5.17690859519930    0.49612731264841
H        10.47048548268930    4.74836399302361   -0.05009157892150
H        11.00151515441617    4.29980538205119    1.57546088417048
C        11.49203149740504    6.89736889723956    2.44844126525416
H        12.50070440476198    6.97682382887268    2.05038337442697
H        11.49846742679130    6.19357407657603    3.27631789283540
H        11.19756217044166    7.87514466652104    2.82092468675692
C         9.51970831713427    1.96965286605878    2.73015894983555
C        10.59510444106838    1.89212897469945    3.60143922300223
H        10.47517802708591    2.21983519401393    4.62550151599424
C        11.81161322041258    1.41598628555856    3.15202542751467
H        12.65182759357971    1.36473092224730    3.83020150909290
C        11.95620814899468    1.00209615105790    1.83729828693126
H        12.90953635245943    0.63272241383609    1.48804413048450
C        10.87510110206704    1.05861041497187    0.97471556588989
H        10.98162371466409    0.73088050024051   -0.04975544541579
C         9.65658836789775    1.53955706314547    1.41899117143784
H         8.80548282344862    1.58549224874863    0.75291259487225

