89
CSD_code = QOMKEJ | q = 1 | S = 0 | Stoichiometry = C43H40Br2N2PPd(1+) | MND = 5
Pd        6.50047774887799   14.79810343980868    5.65879160025604
Br        7.02114251782561    8.76356606858922   12.48183038478693
Br        1.05469943981960   15.41121742487534    7.36161732118212
P         7.05299931047594   13.09949232078602    4.23601685322486
N         7.28536710990176   13.60075718795229    7.45391378373136
N         6.41087892793771   11.70076103833733    4.94496740363613
C         7.19291995859829   12.15071065581962    7.28867904109600
C         5.99927848714098   11.77128302822250    6.34009816003697
C         5.76646808446504   16.34239313317996    4.40185239272874
C         6.27590502897781   16.91231267116710    5.59926564888149
C         5.73767078764227   16.45964328018031    6.80503886957930
C         8.58862697768202   14.01497800052503    7.98117337573023
C         6.91111395426371   10.40013924491679    4.52887536869745
C         7.14487965386337   11.37127464581300    8.58945109958278
C         6.83906249192825   11.94400509535638    9.82006329337043
C         6.80262792225577   11.17620076408941   10.97091545955037
C         7.07308897098147    9.81979231913033   10.90031585176826
C         7.38583045805540    9.22910883447134    9.68540910304287
C         7.42285123712401   10.00725621653758    8.54547373290844
C         4.79827313006870   12.68289972894745    6.54894993782436
C         4.24986069178857   12.79119495593133    7.82849334396183
C         3.14392436031341   13.58481331574181    8.07414876034081
C         2.55213270181639   14.27584445258964    7.02758153141028
C         3.03851062409342   14.13737531270495    5.73566319836129
C         4.15632195151967   13.34809575264320    5.49702283226309
C         8.88267750076971   13.05839085080330    4.16745037436094
C         9.62616601107688   12.08377757177560    3.50857247359967
C        11.00799369453493   12.15894194986726    3.49927979597640
C        11.65644350738963   13.21071237895926    4.12721618639703
C        10.92185785088889   14.19860137666683    4.76385790471766
C         9.54105785178540   14.12088264345639    4.78506837104214
C         6.59870766666809   12.89023085085448    2.49248926165914
C         7.36220085072992   13.54598185756922    1.53022312461314
C         7.00329137895977   13.48185760088568    0.19728759862054
C         5.87526957016097   12.77378191324244   -0.18477205743610
C         5.10690821120063   12.12672945086875    0.76989398485398
C         5.46016428662092   12.18778345987134    2.10543211704022
C         6.28591355967565   16.70935251485859    8.13198596069485
C         7.50114529514284   17.36819404049326    8.35398855274155
C         7.98562283158612   17.53684053003794    9.63731365326120
C         7.28203114273036   17.04296523088209   10.72459887024836
C         6.07984123791892   16.38283598795453   10.52224086734693
C         5.58581902088211   16.22059850707079    9.24311640950043
C         6.39069992386904   16.54497933165613    3.09537429771987
C         5.60943823355922   16.48688692946090    1.93868019390615
C         6.17384967105814   16.69454166192559    0.69509137094589
C         7.52986032451961   16.95231788447104    0.58010242233448
C         8.32303055353138   16.98686895897716    1.71684876286658
C         7.76295812626549   16.78328776827101    2.96198000125280
H         6.62452173111174   12.99949536094461    9.91683836889290
H         6.56716139001498   11.63166769962109   11.91979206664953
H         7.60217651611819    8.17393372840086    9.63511980734084
H         7.67812168887144    9.54529317635975    7.60296084035479
H         4.67513510717647   12.22639541858339    8.64386750354204
H         2.73502577212010   13.65606012708524    9.07004083827092
H         2.53280004935977   14.62723813537329    4.91664843953408
H         4.46267672342882   13.18423187919346    4.46760772153930
H         9.12956947252422   11.27898648637529    2.98745200797084
H        11.58122021809352   11.39882203092187    2.99091212758507
H        12.73382895743163   13.26599220341803    4.11078242911889
H        11.42733407072766   15.02685080720893    5.23791108999261
H         8.94611342118166   14.90443380343169    5.27258410762824
H         8.23868500107846   14.10282820728209    1.83126661728433
H         7.60473667429344   13.98531174141429   -0.54376749471039
H         5.59523876536696   12.72415847925812   -1.22561279015242
H         4.22888143701435   11.57323838095388    0.47298556291947
H         4.86377756807311   11.67252912963257    2.84546739983364
H         8.06768703871837   17.76309338754807    7.52291060478571
H         8.91843473321390   18.05759396639820    9.79112189890682
H         7.66487756910432   17.17833779096182   11.72382715789762
H         5.52266611294796   16.00353906676871   11.36556527821289
H         4.64129737599549   15.71515058013530    9.08957081138983
H         4.54997699843019   16.29083172825941    2.02173456202290
H         5.55344368496230   16.65742851271820   -0.18710124719276
H         7.96960440502336   17.12135228520491   -0.39060367919078
H         9.38304599403051   17.17352556417634    1.62992421001846
H         8.40028207296920   16.79707506060585    3.83806688282132
H         8.10185705693632   11.83859815889640    6.75294980360524
H         5.67857985002852   10.75924356871301    6.61882823876220
H         8.62194154268770   15.10434222022700    8.05340261179925
H         8.77905862081568   13.59447961774765    8.97377412354362
H         9.37794241087084   13.67325048035361    7.31082629672372
H         7.07541209454419   10.41796973829802    3.45276265784132
H         7.84815260913805   10.12199558925750    5.02356951399828
H         6.16115253276070    9.63786599758184    4.74683859294395
H         6.56766757158070   13.89416312722811    8.12544664818004
H         4.69143789336887   16.13293920139842    4.36688308960047
H         4.68888447787030   16.14023845239518    6.80367096993538
H         7.17673196070091   17.51955896929790    5.57444548485567

