70
CSD_code = QOMLAF | q = 0 | S = 0 | Stoichiometry = C20H33B10IrO4Se2 | MND = 7
Ir       -2.14064158822488    3.84407855870495    7.48426097152347
Se       -0.57696256824214    2.58364070705283    6.22062372098164
Se       -0.43673144197149    5.14928126142853    8.48754047348426
O        -1.93249756898280    0.84374512269493   10.76786487503900
O        -0.49754535703616   -0.43611100255764   11.92497143103270
O         3.32602296815606    7.39584936269226    5.81212886242665
O         2.06535969475997    8.78884991416548    4.58631649238587
C         1.19820772141155    3.08584187603033    6.95842185190465
C         1.26150241259735    4.23668217092374    8.01348176710835
B         1.50468131315102    2.59711799687531    8.60978357188072
B         2.35189877558061    1.85029792457091    7.27511065898263
H         2.05665738065045    0.75625500508408    6.96745145904814
B         2.58532767684225    3.05162511664218    5.98107166514389
H         2.45108626836239    2.69821826972054    4.86891377390565
B         1.94117517310552    4.62512887663408    6.44960494456920
B         3.65969963989563    4.34505864519842    6.61368868804269
H         4.41266644371493    4.92372339108287    5.93118001870200
B         2.72258421642263    5.12923150155855    7.92805428225830
H         2.67211435758312    6.26020235729003    8.22832095430628
B         2.46033595540236    3.93507958276969    9.20973114042664
H         2.24780024361897    4.32376856204689   10.29714471388563
B         3.24316757092440    2.39930002397163    8.72037049613390
H         3.69443427547416    1.64722461940767    9.50072809819597
B         3.92327466963278    2.65170829337428    7.09108489024328
H         4.86854040448682    2.05916593739593    6.72383138824617
B         4.00162350515480    3.95581330695720    8.32062832496698
H         5.00169939165522    4.29255358982294    8.83470357293178
C         0.33057590134336    1.94745625456679    9.39785685772904
H        -0.69306740656967    2.28022205811338    9.19224323410122
C         0.40803020494856    0.99961899180362   10.33953025069320
H         1.34351804655060    0.56837880067159   10.65785964729008
C        -0.79327546577190    0.49238512103054   11.00035938404619
C        -1.59415872663299   -0.99199425828948   12.62868203762525
H        -1.17562494010043   -1.70582291932520   13.33324532197544
H        -2.27644130964234   -1.49240555495078   11.93744261783451
H        -2.14343471602207   -0.20964874596636   13.15777055781578
C         1.02176317849110    5.47933166219328    5.51305165304178
H         0.08767532387121    4.99618826026012    5.21808212331541
C         1.16955739053934    6.70589575526301    4.99762948981069
H         0.40706282112319    7.13492879104006    4.36061582989202
C         2.30683839548117    7.60788586780183    5.20422073789506
C         3.08785457310450    9.76252266873029    4.70179630328143
H         2.75577878628337   10.62489736437725    4.12910023852200
H         4.02798411044713    9.37434369838101    4.30391513726697
H         3.23913609378454   10.03215293491996    5.74939964249013
C        -3.96299777499933    4.94308380111185    8.12479244553855
C        -3.88149956122272    3.71095958640853    8.82311199833186
C        -3.94341549674061    2.64033545362014    7.85204520136259
C        -4.06523960319972    3.22219152495381    6.56318543636906
C        -4.05394289754618    4.64831930834203    6.72339526019842
C        -4.06853971412736    6.29560464757573    8.75164039085127
H        -5.08769899371670    6.46591918797601    9.10295708892056
H        -3.81563660330632    7.07946338050145    8.04183178264092
H        -3.39553583120616    6.38111578048905    9.60450692821753
C        -3.89533904150386    3.52238265650946   10.30120692088937
H        -4.92093024278580    3.36053813623329   10.63853578060665
H        -3.50088229343348    4.39842172328357   10.81151221137213
H        -3.30771453676818    2.65262730234920   10.58833646573798
C        -4.03205960115366    1.19054917968716    8.18645372466424
H        -5.06397152005158    0.93523811821257    8.43482346765311
H        -3.41124418417901    0.95197301981103    9.04779909084622
H        -3.71946690115382    0.57480115541370    7.34577106400759
C        -4.30047658562044    2.47609868816484    5.28946103920244
H        -5.34952345983047    2.18403656956003    5.21680684793580
H        -3.69203732018510    1.57292826646064    5.25113507005687
H        -4.05461909390913    3.08598528748945    4.42351133127214
C        -4.27453406078318    5.64896209640745    5.63972228179268
H        -5.34301066625624    5.85041112106235    5.53966700942507
H        -3.90864327911231    5.28219145536551    4.68306541140223
H        -3.77339453210706    6.58869483102097    5.86311159858171

