76
CSD_code = QOMLOU | q = 0 | S = 0 | Stoichiometry = C31H38N2NiO4 | MND = 5
Ni       -2.51001140769008    8.36976204421783   17.87930652574598
O        -3.83855688274505    9.52242124509190   16.66675620430919
O        -3.81608713542863    8.21054940039058   19.17348985639532
O        -1.51431346605397    9.85755396923973   19.05669578068141
O        -1.20172175536911    8.49997984131790   16.58484440718574
N        -1.93232767079605    5.63205703833269   18.98989530821949
N        -2.35081902713555    5.53236778272248   16.89294199107716
C        -3.53382108859569    9.96474092361055   15.54304602294369
C        -1.92111807481723    6.39823936523551   13.33730522822218
H        -1.13908465669149    6.41338887117349   12.59099507536735
C        -2.57939083930515    6.51160760112466   22.50897904684674
H        -3.34161034864752    6.35987738572898   23.26048215142318
C        -2.27164233949885    9.84651694217815   14.93593914762422
H        -2.11730248175944   10.31812494013409   13.97793400828894
C        -1.20914135481462    9.16166618501493   15.50787020519964
C        -2.24651906256117    6.38987842551640   17.92404430610824
C        -5.26052515115814    8.59708933055555   20.99491528047688
H        -5.81924773319769    9.51720256097497   21.14659945053723
H        -5.01553347827977    8.17609999898462   21.96717348063172
H        -5.87208284050897    7.89221619108593   20.43858328794174
C        -2.74629976734248    5.95079132400140   21.25345338980360
C        -1.08413799537365   11.24440019064549   20.93481966726471
H        -0.83435670162148   10.84045645877775   21.91337767710102
H        -1.64072400277239   12.16817816039168   21.07659502404748
H        -0.17232433301078   11.45515737342902   20.38259511367676
C        -2.64750445976603    5.94298974764689   15.56541970903150
C        -1.92912977802019   10.24461960532555   20.16524262620598
C        -4.18485155525271    6.82404703584593   13.96752236859077
H        -5.17589893304688    7.17488317473052   13.71840878115604
C        -3.12812404947308    9.83571666612873   20.77480680573212
H        -3.40315161918306   10.28499596024995   21.71637453608746
C        -1.62713189817890    5.95197952110368   14.61549484479434
C        -1.75428829621747    6.16106610048778   20.29653652806337
C        -0.61980741078057    6.92158959141431   20.57594931316165
C        -4.60156912114352   10.69882998175347   14.75136072703609
H        -4.74778331752960   10.21234596135610   13.78950195567294
H        -4.29007255566825   11.72566119042446   14.57291802034092
H        -5.53533087580991   10.69762894678441   15.30710115911004
C        -1.46510553492803    7.28055717609498   22.81612917875288
C        -1.84231072798020    4.31320071236368   18.63358739921627
H        -1.59142372583280    3.54415741374338   19.33534100485141
C        -3.98186141856209    8.88939798980678   20.22700870513949
C         0.41758436817605    7.16252785251080   19.52612101314731
H         0.68088062759077    6.23925482329400   19.01124495880734
H         1.31342152254369    7.59473146084270   19.96364778148040
H         0.01797876513350    7.86305827138459   18.78768643068481
C        -0.49620301184429    7.47122773740741   21.84368521996817
H         0.37260562065448    8.07247606813145   22.06945778674726
C        -3.93590207731569    6.37776139985301   15.25702675277369
C        -3.19149513660435    6.84484624998070   13.00088958800764
C        -0.23809474148340    5.53497929286604   14.99288823909987
H        -0.19803751607209    4.47673629331192   15.24971679965612
H         0.08875017006784    6.10761472796490   15.85994142495263
H         0.45117368557269    5.71504419991296   14.17235551434639
C        -1.33808577078871    7.92081098528870   24.16494088383291
H        -0.30634238734478    8.19356374124249   24.37229775629959
H        -1.69161405977776    7.25266333066280   24.94760186783245
H        -1.94364005508316    8.82693035461602   24.19919657784157
C        -3.98195720851971    5.17788001860471   20.90489117159184
H        -3.74994862867771    4.13462991959583   20.69219830954755
H        -4.44171578287436    5.61135834023969   20.01763472148819
H        -4.69656235709934    5.21037755449652   21.72284802232456
C        -5.00895550854920    6.39053953098877   16.29857688807897
H        -5.03298001029080    5.45297626983992   16.85288461111402
H        -5.98168420251462    6.56202929877640   15.84562737021846
H        -4.80676204192549    7.19977250052113   17.00583029239927
C         0.10241814599116    9.17079444923012   14.74011978371668
H         0.41155424071279   10.19511981390665   14.54789144018785
H        -0.02815289329036    8.66345891546473   13.78716092991854
H         0.87126154680552    8.66483732067537   15.31736468156280
C        -2.10302010328139    4.25062976027231   17.30542695016690
H        -2.14541926987565    3.41389493412717   16.63840441126651
C        -3.46876209190466    7.37637476373461   11.62762896222387
H        -4.52648253082364    7.30308626576499   11.38687454787665
H        -2.89629602278125    6.83556094034669   10.87717436755953
H        -3.18117041193267    8.42696228882921   11.57692264357534

