70
CSD_code = QOMLIN | q = 0 | S = 0 | Stoichiometry = C20H33B10IrO4S2 | MND = 9
Ir        7.52373221153057    2.34536487643341    5.07476583006440
S         6.71482471463823   -0.34592113154258    3.23263460261862
S         7.83061399024267    2.64221481362491    2.61804178034100
O         4.16232719132292    1.49530958561956    6.43958315381351
O         3.51963024130723    2.91252084622607    4.81808097151957
O         9.56561358051871   -2.63534767039416   -0.11608370717250
O         8.19567741453743   -2.75211357487308   -1.88798160516896
C         8.50201596429145   -0.09825021344877    3.21272938216425
C         9.06420481235584    1.32803600293746    2.68950684615666
B         9.11986918637481    1.05355766952810    4.35943645485761
B         9.45423799144136   -0.68056956900540    4.48422261219407
H         8.93445368289389   -1.31709120073926    5.32009760977674
B         9.53084998491995   -1.37704960767031    2.82591036891223
H         9.03647354095905   -2.42126665542379    2.64804409990131
B         9.22050999056640   -0.07428172617291    1.64781395609101
B        10.50429711228130    1.12295021856986    1.82480425897270
H        10.73096053428359    1.85195463441346    0.93546435055589
B        10.50367591410900    1.76827284024402    3.47497392582624
H        10.69995782817511    2.91701165080021    3.56606995062239
B        10.77837285015924    0.48978901314799    4.65256769939208
H        11.34250832424685    0.66333491806512    5.66673781447834
B        11.02207690404625   -1.01046909526393    3.70374691434389
H        11.72539276429323   -1.86532351826666    4.09261439661660
B        10.87132242655355   -0.62111035576882    1.94595945209540
H        11.48933332578994   -1.18816722411658    1.13192325184671
B        11.65529785939056    0.52161005455473    3.06876793806549
H        12.80325936041548    0.76052117287178    3.01059310028179
C         6.35014556776951    0.64428276841735    4.70126284335375
H         6.14038792706654    0.02594288949646    5.57393011481674
C         5.51376758490076    1.77924284036265    4.48353657873891
H         5.30127865075005    2.08561505846741    3.46182247072198
C         4.38166885204412    2.03359021804935    5.37493328609873
C         2.30068948875937    3.11643165516248    5.51103909144168
H         1.71306584855691    3.79650186687137    4.89963598252089
H         2.48156416059130    3.55119266815365    6.49666952460135
H         1.77603832902587    2.16711927276130    5.63999523632895
C         8.19934282592171   -0.03516523907007    0.45793629101195
H         7.55965861489060    0.84581593324709    0.45163933818530
C         7.97773792251604   -0.88384700594625   -0.55188770728272
H         7.21948487888612   -0.68158063931521   -1.29644172474897
C         8.68269757537870   -2.14973075942761   -0.77915593019062
C         8.78745514253006   -3.99509445311734   -2.22312576841042
H         8.28433161388598   -4.34119153264145   -3.12248355132752
H         8.65490371895275   -4.71036574089039   -1.40841289404938
H         9.85717094347542   -3.86946866691610   -2.40454221621468
C         7.77087658598752    4.50700298360940    5.85473145561317
C         8.92216388782249    3.67231858066299    6.12205236009613
C         8.52530809373630    2.70271123303461    7.11917967618863
C         7.14935020955670    2.88858764347462    7.37249252524125
C         6.69400617737624    4.02261070505242    6.60683718684023
C         7.77910986021408    5.75294477629978    5.03014054170072
H         8.13422158158992    6.59395481932829    5.62903151393716
H         6.77882545177661    5.98832159119028    4.67337615213896
H         8.43567721602693    5.64960922150795    4.16887909314097
C        10.33092121867386    4.14564110323859    5.93163915241117
H        10.58994078113738    4.80235497401603    6.76488340737581
H        10.43693096089422    4.71599285204656    5.01303847858992
H        11.03571698099187    3.32006391829092    5.91478647856550
C         9.44051637201156    1.82645350748149    7.91317915270005
H         9.58014955926514    2.25481043295545    8.90716648559363
H        10.40993938423389    1.74297181300748    7.43468052508420
H         9.03167489310019    0.82540992264985    8.02931366354928
C         6.36047577118191    2.20095984296319    8.43357467401869
H         6.13025849041189    2.90481324905094    9.23527380344219
H         6.91979950826370    1.36962109721167    8.85363075833770
H         5.41790355202415    1.82096545565848    8.04163091357313
C         5.37047631415938    4.69335717706840    6.76277964368175
H         5.49645066900207    5.62633755716384    7.31643891043528
H         4.68368309958468    4.05940495497614    7.31739242590076
H         4.92714403342784    4.93740270003781    5.79759464713625

