88
CSD_code = QOMNIQ | q = 0 | S = 0 | Stoichiometry = C33H47N3O2PtSi2 | MND = 5
C         3.37868659145145    2.50661722731479    7.95746159535933
C         3.46772537573598    4.72700449268722    8.17854919283126
H         3.29659041644863    5.75033219208311    7.91507970421160
C         4.11328371451128    4.18317123107323    9.23429858749250
H         4.59998182032952    4.67025112955108   10.05115251834571
C         4.73270056693774    1.83863982697234    9.91771668958983
C         3.86470082053323    0.59664136429020   10.13446619324101
H         2.98951330453018    0.85809174873030   10.72462167337166
H         4.44060416723658   -0.16087514883135   10.65760407980426
H         3.53519825489391    0.18649028016873    9.16565387868243
C         5.12868007448941    2.42786415048928   11.27715362284412
H         5.86594941194511    3.21940811868037   11.16639785889430
H         5.56566562954153    1.64121034539062   11.88661093861396
H         4.25074362844687    2.81875937135373   11.78675022622001
C         6.00113341035346    1.46607827514982    9.19283617826903
C         7.76687251910462    1.50715301083219    7.88819385833952
H         7.67404454994467    1.27929145327644    6.82030244676456
C         7.76899140159909    0.20427791266695    8.73491206124669
H         7.67868745677153   -0.69441504111030    8.11959516906882
H         8.64280127362527    0.10932298626374    9.38266605607019
C         8.98769872699874    2.42486410558082    8.07277016692681
H         8.78472551632418    3.31372541942364    7.46652290259672
C         9.15803208595210    2.87579663644824    9.52136022820815
H         9.37693596080534    2.03666765147760   10.17814279035604
H         8.24901920974137    3.36204949285746    9.86749551457840
H         9.97872107918338    3.58531007782116    9.59486797712720
C        10.25294585478218    1.75037785560935    7.55032972094140
H        11.09585464942344    2.43378986697967    7.61911926591141
H        10.13080617148142    1.45890140487507    6.50978462130630
H        10.48838932682298    0.86022037605094    8.12946633363677
C         2.31508141384312    3.78983074262061    6.15737972004310
H         2.28189426571222    2.74836824893185    5.77325874306979
C         3.13864093039352    4.64312852876326    5.21452285503581
C         4.24835412447513    4.07892718631016    4.59845123105081
H         4.48135882817707    3.04035373491118    4.78011998936967
C         5.04932807536772    4.83883474857640    3.76638033316299
H         5.90662336168249    4.38938785063109    3.28766248276377
C         4.75153227421374    6.17333090711189    3.54600881112621
H         5.37340395209219    6.76732180132757    2.89271059226042
C         3.65524280210249    6.74476137911054    4.16820096776893
H         3.42210492521203    7.78683727380521    4.00518100052677
C         2.85374148897988    5.98540927686006    5.00317396545284
H         1.99848387265542    6.43770598126422    5.48492251851115
C         0.88922311633905    4.26717491389444    6.30537844350314
C         0.30450768171928    4.51452807171426    7.53858907394708
H         0.87481400531231    4.38964967794599    8.44695627233638
C        -1.02015061192974    4.91135523132837    7.61750730333741
H        -1.46377601821567    5.09815220354141    8.58454823392103
C        -1.77389434798819    5.06303401087048    6.46791874758519
H        -2.80703435227783    5.37025764602516    6.53272392183001
C        -1.19758845666676    4.81374136604438    5.23304060477703
H        -1.78055856705323    4.92334843586227    4.33086877585887
C         0.12326919038598    4.41659830712154    5.15303988855035
H         0.57252811264121    4.22235025201759    4.18945216565376
C         4.51627065606290    0.14014806592246    6.19197332936646
H         4.82801395507068    0.82701097625438    5.40769474758417
H         5.32472796915222   -0.10785451189874    6.87948400345562
C         3.55795357475524   -0.85726153250731    5.88603662585731
H         3.64009371926396   -1.79138663961195    6.44580208973191
C         2.86547098366222    0.63509072037441    3.19798584135591
H         2.26578691456733    0.57947740546631    2.29466556517743
H         3.89695857001818    0.79147117323443    2.89951679661727
H         2.54073680097182    1.51194377826534    3.75090506668697
C         3.21866932100717   -2.47374789647619    3.22224885510204
H         3.08697650389352   -3.39305376166186    3.78227486966758
H         4.26479012607026   -2.39740346629975    2.94677098232325
H         2.63873370647380   -2.55892644683150    2.31011788950273
C        -1.29912368628850   -2.04764820311753    5.76558966881864
H        -1.72500397122979   -2.28208474097850    4.79636068700991
H        -2.11006437466918   -1.75996680793953    6.42559281086796
H        -0.85589752009490   -2.95666673256181    6.15780547636796
C        -0.82049814482582    0.93897964737632    4.94276312427420
H        -1.27895099508070    0.75627816864997    3.97603543686588
H        -0.09195285553972    1.73329579015020    4.81609154494234
H        -1.59240749887103    1.30547271168410    5.61162178818123
C         0.84079371172155   -0.35827349006561    7.27018700867718
H         0.97611430140022   -1.24358393274506    7.89676433115858
C         0.80517997753559    0.87921378496693    7.95704517010646
H         0.78688919792284    0.87458880649701    9.04785539421710
H         0.23038524480123    1.69774001564460    7.52703518800900
N         3.02306166454177    3.68296069537430    7.41410043831569
N         4.03730225220119    2.81944620861448    9.09672408513693
N         6.55413062532856    2.17614147940158    8.30914460144575
O         6.60953575761577    0.31455546079567    9.55320675028104
O         1.05996885797586   -1.19021534164504    4.49632731988243
Pt        2.71252585510328    0.64904548016270    7.12065103523731
Si        2.66233101952048   -0.95912284358630    4.22872527914634
Si       -0.01501525715989   -0.65276961164904    5.61371750633344

