89
CSD_code = QOMNAI | q = 1 | S = 0 | Stoichiometry = C41H43N3ORh(1+) | MND = 6
C         1.60578232898275    5.96632600102851    8.90983865334274
C         3.81952709405239    6.20849560917921    8.88134670410348
H         4.76909714698659    6.61173032671565    9.16478946343303
C         3.50657945210732    5.25808049307186    7.97158628566826
H         4.15295213799783    4.69235443177616    7.33694669729346
C         1.36482186394619    4.19027348912939    7.17215607953035
C         0.74843504240555    3.10946485223111    8.07450126983908
H         0.13154558949282    3.57839650536698    8.84922601364472
H         1.54011782104945    2.53588947987973    8.55032574405421
H         0.13406125731617    2.43534043834590    7.48407250802494
C         2.22460919137733    3.54099369356885    6.09053115390714
H         2.70630396295319    4.29072245318071    5.46759937350730
H         1.59037500163817    2.93253076579896    5.45216235969314
H         2.97754581946165    2.89666642242691    6.53599672735247
C         0.25627242526943    4.98857674910094    6.52248584833852
C        -1.07966554914586    5.67079367411415    4.88730703215448
H        -1.94561745845726    5.05084888978483    4.64032392007916
H        -0.79108397659788    6.24385809277193    4.00696945230544
C        -1.30572695242411    6.53083850421698    6.15243617279650
H        -2.34919136414000    6.48904168846130    6.47963437898582
C        -0.89397984572061    8.02302929210870    6.01566037452219
C         0.59490456144609    8.13773778301327    5.67942797024444
H         0.85030965430413    7.57940782049346    4.78190053821459
H         1.20706160613858    7.76932068311618    6.50141889685425
H         0.85461931720723    9.17771676453655    5.50451488440357
C        -1.17426044601240    8.73312724505908    7.34421403433536
H        -0.75386615769809    9.73490712468166    7.32824650145384
H        -0.72591161296716    8.18282257049624    8.18792144005748
H        -2.24503414963111    8.82023123213015    7.51125054167421
C        -1.73514426440200    8.68314378525944    4.92023822656553
H        -1.48682973947169    8.30433376367466    3.93280589900754
H        -1.55541804572582    9.75488336935276    4.91923933766695
H        -2.79571829332250    8.51695583146725    5.09363142322010
C         2.55446335223851    7.60703077221771   10.51304237993080
H         1.58733189327277    8.10838288613350   10.38224266285112
C         3.67270046741745    8.62527795120368   10.38573848785906
C         3.57450410800793    9.67691109588741    9.43428859735142
C         4.63855296276190   10.61743842271594    9.35240788078820
C         5.76066119365949   10.47700174631856   10.19492730797391
H         6.55870835257493   11.20007417004261   10.11888322135338
C         5.83517306955171    9.44690035208353   11.08753938878325
H         6.69384763485940    9.33568438428724   11.73119668397214
C         4.78718071655674    8.52162857997744   11.17988709087856
H         4.86190623891116    7.71898150143347   11.89878398104976
C         2.47244732032160    9.84318144075312    8.56684431639114
H         1.65301583691377    9.14006046411079    8.59398613119272
C         2.42181602952199   10.88688443127676    7.68507154782849
H         1.56653494066284   11.00728711144162    7.03672680429382
C         3.46928423563883   11.81530411628754    7.61077795805305
H         3.40887471475304   12.63227636929426    6.90829198790724
C         4.55562615788615   11.67872982040089    8.42677296710835
H         5.37148312031510   12.38443903518520    8.37954599905379
C         2.54213346280908    6.92986755984099   11.87105754447607
C         2.12978712777652    7.68394670133956   13.00485306629746
C         2.06979164043992    7.03669973329272   14.26882134770099
C         2.43787779422507    5.67911991163360   14.37426204428134
H         2.39109845433411    5.20218155161913   15.34154911502480
C         2.85614236010067    4.98756852736330   13.27528204507768
H         3.15214904725219    3.95256173707353   13.35548435061550
C         2.90478692995372    5.61650959652776   12.02224250321990
H         3.24103482604150    5.03699391890976   11.17448952734562
C         1.78019105854926    9.05134165040259   12.93860566306247
H         1.84317067658920    9.57980092668771   11.99971564338892
C         1.38284329174212    9.73118601042750   14.05674650991552
H         1.12427683234004   10.77694711704047   13.98668864248036
C         1.31215442787544    9.08571035800813   15.29943700318754
H         0.99587203592284    9.63942782831776   16.16995674805391
C         1.65125077246657    7.76656684443700   15.40101915123858
H         1.61080569746857    7.25929003744088   16.35352961596067
C        -0.51366407115822    5.25999390809511   11.15823401726976
H         0.34969987395723    4.74453206290273   11.55768794030808
C        -0.74469886574880    6.62953496016328   11.20042212905041
H        -0.11168144505647    7.37200264779176   11.66358284415636
C        -2.25765024230551    6.81186264311489   11.09387763099994
H        -2.65476148441293    7.77692036411921   11.39351885289792
C        -2.50609380280341    6.38384974820796    9.64872370879288
H        -3.08202271931166    6.97291918972476    8.94965606015426
C        -2.28553364473093    5.02736819455143    9.60300211322627
H        -2.62712446635013    4.33314160912846    8.84517755260541
C        -1.88893911923254    4.60274650018898   11.01744737699047
H        -1.95194882245743    3.54289666384239   11.24659743440162
C        -2.74905678513813    5.56705682668891   11.84987080733546
H        -2.48072783918578    5.57521998043000   12.90539776471115
H        -3.81869624699239    5.39146726124180   11.73953877989287
N         2.14333353000247    5.11629644470045    7.99633567721980
N         2.64581871542036    6.63331801213089    9.43748198570205
N        -0.45807914728266    5.85670872479065    7.12875353889056
O         0.00639357161135    4.80563514383944    5.23221807969435
Rh       -0.40841918886504    6.01419462726997    9.18487388347370

