49
CSD_code = QOMTIV | q = 1 | S = 0 | Stoichiometry = C18H22ClN4O3Zn(1+) | MND = 5
Zn        7.99489618963380    2.12395872938283   -4.71537319033174
Cl        8.55138516346861    2.08589598626366   -6.77052220481974
N         7.41510400035944    2.10783268846226   -2.49778886987527
C         8.65951162224350    2.21168360514130   -1.75134367427355
H         8.53802805487309    1.90738313744461   -0.70244010956984
H         8.97699353710408    3.25937685007905   -1.76358107467472
C         9.74774422147295    1.40119334620881   -2.40940381074316
C        10.79812695977258    0.85926919587044   -1.68221808598328
H        10.83658699495387    0.98176942999949   -0.61099760066875
C        11.79326547808905    0.16762680093541   -2.35568080462309
H        12.62069942559590   -0.26227158029594   -1.81284166724383
C        11.70383506380363    0.03972898779656   -3.73359329758497
H        12.45764082886697   -0.48637131366358   -4.29565875435275
C        10.62079021316513    0.60628711942638   -4.38320709333872
H        10.49988472903470    0.54442130531718   -5.45557880258889
N         9.66870864793396    1.26656544089956   -3.73195633670476
C         6.54269686570448    3.26241279212537   -2.32194192833461
H         6.45867574669758    3.55410165320344   -1.26624196495662
H         5.54278832765860    2.99934694911601   -2.68753443220266
C         7.00085987019474    4.42870589615927   -3.15461101464042
C         6.73733147087026    5.73954131847523   -2.77977878591706
H         6.23291972695596    5.94464302675938   -1.84852708057990
C         7.12413833288540    6.76949819635642   -3.62172644145672
H         6.92872706020163    7.79621540130032   -3.35315531471264
C         7.76343966269098    6.45622379320591   -4.81247386905578
H         8.07785336758904    7.22651992858566   -5.49720833657274
C         7.99342743047746    5.12518943545555   -5.11019599891063
H         8.48643552811717    4.82050043349133   -6.02284335677871
N         7.62065900619023    4.14083185718344   -4.29687454371633
C         6.71665585090252    0.85461394107069   -2.26276421177043
H         6.09578953203408    0.88385102761367   -1.35750158775927
H         7.45144999701528    0.05024492827292   -2.16196007886082
C         5.88622591440888    0.56694559336372   -3.50339604723920
O         6.30762959873020    0.88397096948977   -4.61279174546748
N         4.71999028554620   -0.06356053919633   -3.34828664527987
H         4.36014396429765   -0.22859250589193   -2.42003803471855
C         3.76934240972586   -0.01843867854325   -4.43549542997312
H         2.89716160671803   -0.63005473138446   -4.21209797632470
H         4.23966284324336   -0.37839515482964   -5.35422132986689
C         3.36269861588745    1.45021491224709   -4.65343199332004
O         3.83094135177783    2.34350826880619   -3.98837577912955
O         2.48469729749158    1.56977728126639   -5.61199621884256
C         2.03156011981642    2.89395762534535   -5.95462519260464
H         2.84030913718589    3.39926647817060   -6.49237337192294
H         1.82934204998043    3.44458579343328   -5.03021706990589
C         0.79157996018085    2.76382908717694   -6.81607397429259
H         0.45227024251607    3.75186727302493   -7.11171599815144
H        -0.00322633491189    2.26696557091028   -6.26641610112518
H         1.01442203083396    2.18456244894103   -7.70742276823027

