99
CSD_code = QOMWOG | q = 0 | S = 0 | Stoichiometry = C34H56Cl2N4Si2Zn | MND = 4
Zn       -0.22880104170284   17.26613109675927    2.74751472819376
Cl       -2.17015166385153   18.07039766594981    1.65165906992224
Cl        1.63627352941089   16.99182282860545    1.30791467341339
Si       -1.00217896660621   15.02236338403234    3.20882517266961
Si        0.60798462916034   19.14602715633425    4.02147874817591
N        -1.94597223331672   14.37025665660616    1.77934397280960
N        -2.80388961569749   15.03587467347988    3.58261729143985
N         1.49487734415610   20.31661312372283    2.92440322431670
N         2.42484398407613   18.98799824540668    4.26652895446527
C        -0.34277491769875   13.43756314824045    4.08993913448153
H         0.61755091919496   13.17229600484226    3.64847674505566
H        -0.13217090173542   13.68485049243431    5.13092513111462
C        -1.27066807312620   12.22975137588215    4.04083128165664
H        -1.44922179700853   11.92566434035418    3.01325683378725
H        -2.22986884110855   12.46605196684953    4.49348798377150
H        -0.83520844074428   11.38738687593260    4.57625570917752
C         0.02316753736684   20.24596964136473    5.49472005218099
H        -0.94874153620944   20.66999977941644    5.24377451708544
H        -0.14847791764139   19.60224031165908    6.35789851092238
C         0.97644360243725   21.36743361212797    5.88924095320939
H         1.12296852464935   22.05443829292049    5.06055498749927
H         1.94640956891098   20.96454722770349    6.16806742899138
H         0.58109347574925   21.92949531662613    6.73399190173433
C        -3.10468651551471   14.68491656682725    2.34064389563874
C        -4.43235632755023   14.67726375447210    1.71456117760328
C        -5.23487668763140   13.54235318025538    1.76773756397986
H        -4.87584621592707   12.65414588028654    2.26858042630264
C        -6.48431852871090   13.55238869769801    1.17251093558870
H        -7.10460021856654   12.66922826637012    1.21511199388380
C        -6.93560584315577   14.68985602800500    0.52404906712585
H        -7.91095352534925   14.69386323476684    0.06039332486548
C        -6.13651900534767   15.82027306943865    0.47158548463666
H        -6.48650199901266   16.70844343331128   -0.03235908047116
C        -4.88611362293233   15.82153706485589    1.06411092208339
H        -4.25787287180819   16.70010895534176    1.03684429552562
C        -1.63396954681536   13.98928990111432    0.41338868938745
C        -2.39815121574980   12.71498110818392    0.03146339862120
H        -2.20373503376151   11.92303238681928    0.75193246769934
H        -2.07314429724491   12.37659422275913   -0.94884433173873
H        -3.46858078577754   12.89804873438343   -0.00689751849743
C        -1.97555926684129   15.12066015997553   -0.56010828712202
H        -3.05118463573324   15.24842963568339   -0.65086139878383
H        -1.56630268332989   14.89913488571570   -1.54231342392055
H        -1.54742649666263   16.05651884170970   -0.20989763305672
C        -0.13092468405371   13.71332294799678    0.36729389145426
H         0.42917227938959   14.61884705668724    0.58388206823960
H         0.15457932806409   13.36672535269842   -0.62232035274953
H         0.13949378244584   12.95209149657845    1.09469237449620
C        -3.65137050866859   15.55527412171789    4.63608124396158
C        -4.43788821462892   16.78560703937973    4.16990791352608
H        -3.79423920162956   17.44235139568029    3.58912028501669
H        -4.81377771127733   17.33219976327021    5.03087019214658
H        -5.28260731424454   16.49725030548849    3.55033601927695
C        -2.72372166225355   15.95421206735291    5.78580919292459
H        -2.09133952945024   15.11671104127796    6.06730918348687
H        -3.30979723312923   16.25605026794258    6.64967661487053
H        -2.09223485512705   16.78623008295272    5.48271318540232
C        -4.61564837464831   14.46310364616916    5.11820124339601
H        -5.26514284409646   14.14064919885624    4.30889525668896
H        -5.23493830005508   14.84924872611996    5.92340812447316
H        -4.06150389952330   13.60317824730777    5.48804791666629
C         2.67283958893211   19.80726751274687    3.25478293952935
C         3.97030410763521   20.07083286605088    2.62100442180085
C         4.37769801787251   19.28578818326020    1.54594683302887
H         3.73518357055882   18.49026098949196    1.19706465365053
C         5.60105522607048   19.52971719319666    0.94689138827914
H         5.91578619003819   18.91977252513070    0.11370275222588
C         6.41809721802651   20.54772724190550    1.41096879095367
H         7.37200755844758   20.73413649117461    0.94016121395853
C         6.01226050543767   21.32824520120350    2.48066145728309
H         6.64650282539607   22.12311100660629    2.84468489009238
C         4.79081938030796   21.09285416928909    3.08737160448210
H         4.46739502997947   21.70321844265461    3.91893929852012
C         1.12596129509633   21.21035633039735    1.84100297206502
C         1.40858062206756   20.56553206508321    0.48115247036520
H         0.94059481049199   21.14764461010660   -0.30842281211908
H         1.00283221362073   19.55744622395307    0.45434249927677
H         2.47685196038288   20.51014599517762    0.28763485553186
C         1.88827247682106   22.53587829455706    1.96486939216706
H         1.73127634932224   22.97616085558273    2.94753635264586
H         1.52834724784086   23.23331910836605    1.21298632128914
H         2.95429184927812   22.38883985883493    1.81330896304788
C        -0.37390420823472   21.47201704528239    1.98037898091609
H        -0.60078657185666   21.87318445857487    2.96495325967545
H        -0.93537419305366   20.55246784395653    1.83950720154255
H        -0.69960820334001   22.18684790438915    1.22941463337931
C         3.31061186732856   18.08862369977590    4.97690400853877
C         4.03506891812976   17.13965666872159    4.01557101318419
H         3.34271891812494   16.77017862792507    3.26258433814147
H         4.44114606189039   16.29484756627018    4.56572706010484
H         4.85279381260492   17.64590310129537    3.51007313846676
C         4.33045263865367   18.89300586189878    5.79401185095142
H         4.95120971820865   19.50099345063536    5.14166738888609
H         4.97432991160360   18.21465353736767    6.34732084217597
H         3.82212650368167   19.54392069486901    6.50186269436862
C         2.43243347522594   17.27255877896541    5.92785044401744
H         1.84082154761801   17.93380358326605    6.55493155131175
H         3.05335996239868   16.64881237321144    6.56520947054993
H         1.76144889502516   16.63327565617156    5.35867753692646

