91
CSD_code = QOMYAT | q = 0 | S = 0 | Stoichiometry = C36H48Cl2N4Ru | MND = 6
Ru        9.94857225411237    4.10731279613965   17.02193798498127
Cl       11.40821364725350    5.54142007667023   15.82970363147726
Cl        8.79633011567421    5.91553026783774   18.02753346377984
N        11.42205187620563    4.05692252223916   18.33240729510858
N        11.02254608611820    2.66439165575676   16.23553854639146
N         8.63170107558936    2.99166290033226   17.95701339670298
N         8.47746130733714    4.18227031423162   15.71050619980110
C        11.52066964140388    4.79895840402420   19.43312454269998
H        10.62852393552128    5.34719708102093   19.71262199273497
C        12.68293233482949    4.89871526419469   20.16549786224506
H        12.68912283434123    5.53035768007858   21.03866217548705
C        13.83171350805066    4.20748089821790   19.76505999472973
C        13.71536933227017    3.42899451361089   18.62476906533297
H        14.55772756501598    2.87439567732034   18.25036870606302
C        12.51112212704387    3.36819190241117   17.92429462426011
C        12.28241501577112    2.56928928105842   16.72850866036985
C        13.23212909829354    1.74928232836636   16.12785221401873
H        14.22499491922827    1.71767387923044   16.54469850696502
C        12.92652286117043    0.99952366578358   15.00045866495281
C        11.61351472310512    1.09844177935064   14.53239581537177
H        11.28085151424828    0.54960596234341   13.66826129177436
C        10.71634979836567    1.92792934890915   15.16899348782315
H         9.70109643768312    2.02037821395298   14.80056879144555
C        15.11516002224179    4.33604419706670   20.56311504927351
C        15.52515129491965    5.81463220910266   20.60213765315788
H        14.77118171459575    6.42287681426219   21.09325684948707
H        15.66235617083779    6.19332700803188   19.59179066361656
H        16.46104609369695    5.92781838993322   21.14490290977666
C        16.26718513883416    3.53178065055308   19.95551182708757
H        16.03684219304017    2.46859975389548   19.93433380936778
H        17.16119132143214    3.66815030266616   20.56016245420493
H        16.48994410357759    3.87192956336775   18.94688696293397
C        14.86420566244590    3.82531287534659   21.98916459785212
H        14.08251243517634    4.39658502280334   22.48193544375670
H        15.77319357355337    3.91081776002516   22.58026441836257
H        14.56308430486877    2.77959295072934   21.96920662638309
C        13.99016313558318    0.14206844894338   14.34163322036026
C        14.49703287050757   -0.89525156124938   15.35378778335872
H        13.67789959811410   -1.52881977058612   15.68798551964689
H        14.93736263034072   -0.41850223215071   16.22511351526934
H        15.25395598211166   -1.52540572974834   14.89249625810002
C        13.45964809226869   -0.60077599401046   13.11312866069910
H        13.11143394540158    0.09729842348482   12.35575185835703
H        12.64769512753890   -1.27315317905754   13.38101921213923
H        14.25876118411182   -1.19682670663094   12.67782737524814
C        15.14708037143234    1.04836902945664   13.89789091980168
H        14.78524339999646    1.81102174846136   13.21215007797885
H        15.90876144654921    0.45991147815643   13.39130838991496
H        15.60915019827803    1.54676018408413   14.74528950971450
C         8.80707915964391    2.34448961213426   19.10969504093434
H         9.82661786149637    2.28252647550104   19.47242247850168
C         7.77517273478679    1.79263170487328   19.83086073737780
H         8.00024289964665    1.29830969670282   20.76191468151117
C         6.45693557131057    1.89527253339756   19.36726608584700
C         6.28460329938919    2.54071711627302   18.15478811095163
H         5.30306594279000    2.65562765364247   17.73006909801502
C         7.37171838606332    3.07983867007688   17.46763931264235
C         7.28385482615869    3.75703402717166   16.18192853482293
C         6.10582226503446    3.95150510637080   15.46088063685793
H         5.17946056719170    3.60484441742197   15.88398798250908
C         6.12507806944440    4.59910101368536   14.23623205174407
C         7.37691262712507    5.02293697915984   13.77644583128552
H         7.47880652877767    5.54251101707324   12.83778603252249
C         8.50709360550541    4.79844011936008   14.53097649622496
H         9.48200971563744    5.13960500916688   14.20272187997129
C         5.31427435716954    1.32905476780876   20.18739968886361
C         3.95385231263302    1.53900453120065   19.51838843115404
H         3.74500628922211    2.59759517774344   19.38411337014730
H         3.17244453214634    1.12091094855996   20.14920237714817
H         3.90927307152367    1.03826952245313   18.55367382688232
C         5.53346519844639   -0.17811874730755   20.38068017518561
H         6.46184152991550   -0.38016050618718   20.90754561468874
H         5.57046029091552   -0.68156687265273   19.41669302058497
H         4.71543980578090   -0.60117387804029   20.95918693801186
C         5.29775459490169    2.03398758006821   21.55114720773108
H         6.21896110858387    1.85816877484676   22.09946053971035
H         4.46807780356614    1.66668947155614   22.15093234985037
H         5.18056173226229    3.10699523777858   21.41746579923216
C         4.88067563465350    4.86506869124889   13.41078018842824
C         5.03850025731346    4.19075980427234   12.04048873096073
H         5.16892614552955    3.11684891138944   12.15984442596028
H         5.89763977143263    4.58173598707660   11.50286815847668
H         4.15110237180185    4.36484045379620   11.43617594567061
C         3.61054183354456    4.32450744708159   14.07243015984200
H         3.44226358367562    4.79633670707287   15.03761316205280
H         3.66437535282373    3.24577024355859   14.20381664543346
H         2.75298215855573    4.54242580558475   13.43952131284496
C         4.72714124832307    6.38184718539330   13.23246117773641
H         4.65189164389345    6.86844745340661   14.20233566728264
H         3.82645305886228    6.60150913247903   12.66343625765044
H         5.57624623242415    6.80656696778108   12.70479535639585

