43
CSD_code = QONDEE | q = 1 | S = 0 | Stoichiometry = C19H17ClN5Ru(1+) | MND = 6
Ru       -0.32957103924411    9.69933210769600   10.04839894736168
Cl       -2.05332272270836    9.57807690957363    8.46907562703400
N        -1.58124356106516   10.77759958707821   11.21841076505259
N         0.38476138694686   11.18124433920488    8.96045155545708
N        -1.21941141036434    8.26838863539188   10.89829570256293
C        -1.72990557496820    5.95443448420657   10.95951477265028
H        -1.54444128987422    4.94716143463983   10.62627111049891
C         1.42277113904835    5.84872912988935    7.81027385484350
H         1.75125039886004    4.94893291442023    7.31488123782261
C        -2.69733391552378   12.70710312123539   12.06264151500685
H        -2.77186005028353   13.78187902022339   12.08657489827307
N         0.56855278051764    8.16836046859291    9.07558428330214
C        -0.98015581492959    7.02046155421394   10.46914458216696
C         0.43019777312913   11.93466664116771    8.09063922396920
C        -2.43446043582716    9.98771409996194   11.91335071066928
C         1.98617747499076    9.94957439681345   12.07429034410121
C        -2.74271618875872    6.21397415508048   11.87111613109898
H        -3.33431712809265    5.40305456029937   12.26483939675924
C         0.47667110741574    5.79097996690078    8.81740746560494
H         0.05819647674212    4.84443140457232    9.11723662615321
C         1.93350676703311    7.08720851764391    7.44783837073344
H         2.66710523493511    7.17981816134132    6.66388055802691
N         1.11584510843742    9.84256231524765   11.32478849411615
C        -1.71894433363315   12.09617476600997   11.29817485790735
H        -1.01436470914625   12.68419701345611   10.72183413496741
C         0.50592217315413   12.87965015362593    7.02409617571932
H        -0.44220452159254   12.87576345627248    6.48556722842388
H         1.30651892829645   12.60862234172414    6.33602532783128
H         0.69115212861733   13.87921439742980    7.41678528193483
C        -3.43766218639559   10.53642640678133   12.70920808632152
H        -4.10754608048694    9.89196445206776   13.25407247215852
C        -2.24030163310933    8.54810285997551   11.72181755356435
C        -3.02205935519567    7.52066161917867   12.24359238926316
H        -3.84198852035984    7.73186783821318   12.90924917687841
C        -3.57523791173615   11.91050174805392   12.78423632937261
H        -4.35285203971677   12.35113840367244   13.38765291874099
C         0.05658585877230    6.96689722875708    9.43515915643658
C         1.47851106261517    8.21437124335335    8.10919865747120
H         1.85485781686736    9.19860719510766    7.85623084842756
C         3.06216815366014   10.07784111759119   13.00554401013183
H         3.22267125820990   11.12987275067566   13.24189989738153
H         3.97559596321488    9.66585626513897   12.57617867883301
H         2.82518143154118    9.53908081751816   13.92317064497201

