69
CSD_code = QONDOO | q = 0 | S = 0 | Stoichiometry = C26H38Br2FeP2 | MND = 4
C        13.95037367953361   11.43033266873196   -0.64620763200019
H        13.83707715456367   10.60574097918728    0.04252240727083
Br       13.50524909569007    8.39723247350705    1.67297947646960
P        11.60617685828192   11.56808473788032    1.33680994267825
Br        9.40497116724943    9.00910556831048    1.06814703673933
P        12.02505479433335    8.95431831774238   -1.30489709486073
C        14.28483982294281   11.15919647679395   -1.90730376226662
H        14.46858871065602   11.94769121639035   -2.62660384073888
Fe       11.63702282823571    9.36417375016711    0.86107344682904
C        12.80771129940041   12.91060830226671    0.94766877425974
C        13.76349205589195   12.74395267855360   -0.06116414458799
C        14.56316901374556   13.82188261421867   -0.43985000381734
H        15.30637594971650   13.67869264444686   -1.21004274366958
C        14.43881008211265   15.04698140425453    0.18252163083719
H        15.06720201543699   15.87334677114738   -0.11462570554732
C        13.51618140562176   15.20616621477041    1.20425005701023
H        13.42478717433989   16.15577466096979    1.71093124433857
C        12.70643756960533   14.14912401016745    1.57519039306854
H        11.99477599395568   14.29753825423855    2.37205731147316
C        13.74460417865509    8.69830470516697   -1.96076602974926
C        14.55527293182558    9.78913997795815   -2.32664910106231
C        15.73175113745810    9.57203374789649   -3.04106224474094
H        16.31590666262114   10.42805062352254   -3.34802305178143
C        16.17877388285057    8.29605691979969   -3.31757990015063
H        17.09795592977829    8.14575479144751   -3.86337410146480
C        11.70704034440224   11.64789700181203    3.21704073371778
H        11.29220467671594   12.61110353296007    3.53315940074455
C        10.00254722051884   12.48013548874376    0.88865373849204
H         9.31795760568095   11.67224300164956    0.60884326474253
C        10.88610779389203   10.52969663061176    3.85429993882039
H         9.84247276641940   10.56767401564365    3.54460356394845
H        10.92111068906717   10.61225704862721    4.94003625087354
H        11.29416604318287    9.54981029769326    3.58766991154225
C        13.16123923312219   11.56090465878116    3.67652294694935
H        13.62429153261798   10.63364448054326    3.34628627043754
H        13.20170476816489   11.58457949757816    4.76459808022106
H        13.75196878271350   12.39099458743070    3.29469022994669
C         9.30108199801793   13.28441491575547    1.97907455362779
H         9.88374624418227   14.14518304124235    2.29732618069673
H         9.06516858820210   12.66951664311600    2.84386710131675
H         8.36093287554210   13.65786719873643    1.57471633644771
C        10.23321982468134   13.34343617183832   -0.35215821054304
H        10.86518234168628   12.82700773146894   -1.07292882561492
H        10.71524432650202   14.28313852553119   -0.09098141701126
H         9.28007282421974   13.56920542116046   -0.82693867318410
C        11.27053393707022    7.27272666749927   -1.72820198308180
H        11.81522158439392    6.91674504051874   -2.61186339591172
C        11.40770754381751   10.09488940089081   -2.66304377640236
H        12.03234995869205   10.98673353814590   -2.52319411669372
C         9.78205495264299    7.27318865749345   -2.06910330890367
H         9.59006450072734    7.69828181810754   -3.04952635178968
H         9.19451385695304    7.80910606637930   -1.33006903853797
H         9.42997371217287    6.24199861419473   -2.08543611102548
C        11.50158952128597    6.31424631054948   -0.55465014404300
H        11.26219278708110    5.29328547393339   -0.85058968478482
H        10.84606636143560    6.57509222410217    0.27775957190666
H        12.52948281051336    6.32879878653940   -0.19413218509062
C        11.64757959950558    9.56798002068814   -4.07550466318500
H        11.35871807009968   10.33300083459417   -4.79513874750495
H        11.05678879559206    8.67908700638107   -4.27858620299720
H        12.69629860228851    9.32802482670921   -4.23763211318387
C         9.95505310951699   10.51556270294865   -2.45753510895105
H         9.76823146106328   11.46354777413818   -2.95898335730442
H         9.73830374550687   10.63898147213171   -1.39940355335047
H         9.26219374564781    9.78595909285645   -2.86195629037279
C        14.24400263366281    7.42015970698790   -2.20431923779931
H        13.70723909510466    6.54474925252413   -1.88127730728186
C        15.44621591197708    7.21691567517094   -2.85890497553137
H        15.79750182922657    6.20924463603279   -3.02339165891693

