68
CSD_code = QONFEG | q = 0 | S = 0 | Stoichiometry = C26H38ClCoP2 | MND = 5
Co        8.07560339837461    5.55010772027803   18.16830646705094
P         5.94962027550027    6.08777217240604   18.13273649596209
C         8.11155206489028    6.37378195675023   19.97693594305864
H         9.03540931997400    6.91148824321039   20.19247196222027
P        10.19620515826855    5.00333566825281   18.05179225751689
Cl        8.00099881700891    5.41813763528192   16.05038970802488
C         9.42559114919964    4.34057082981998   20.51790845224392
C        11.81320371148436    4.06428816368546   20.24687862338145
H        12.71503200905269    4.20364052288342   19.66832630192943
C        10.58461508984043    4.46520226261926   19.74135789916215
C        10.72897537548364    3.28801349530512   22.24257701803631
H        10.78604112628242    2.80967806726891   23.20967863205368
C         9.50683887509268    3.72001929193131   21.76111763373867
H         8.61334239119177    3.59564405055091   22.35691728472085
C         4.49947736940740    8.03134752947406   21.47638069853001
H         3.57343832579331    8.39909065767895   21.89395692234712
C        11.88460115045425    3.48405849162713   21.50152193721204
H        12.83922341691749    3.16740695497393   21.89600002498795
C         5.67755980796698    6.83308695519156   19.76542666099704
C         6.89042329617063    7.81797643899902   21.59721931416407
H         7.82277425557445    8.01104266676312   22.10930948441646
C        10.44048555338040    3.43682058392785   17.07525078887400
H        10.19933936348717    3.72042477962684   16.04337850206288
C        11.60560468998158    6.10640637301034   17.55870847821587
H        12.54879188953501    5.59289001538677   17.78003747947657
C         9.38687613076427    2.44386707901864   17.56119285879808
H         9.35418059114844    1.56947701417632   16.91365035807814
H         8.40081492555110    2.91636326725544   17.55332511052821
H         9.60491332786300    2.11706450756762   18.57765750773187
C        11.83414635442755    2.82560840253124   17.12852268725073
H        11.86406831972465    1.94332505535139   16.49009905191145
H        12.07986329896651    2.51419249056918   18.14188309781068
H        12.59436144341269    3.51902096844655   16.77602807943791
C        11.52158221783887    6.42987770753723   16.07110554017779
H        11.70301467803553    5.54537747300015   15.46446057879921
H        12.25897084396572    7.18622309287629   15.80505515272357
H        10.53132354775444    6.80989260254306   15.82589521533976
C        11.51007931963680    7.37317777469895   18.40414255093475
H        12.31440579161359    8.06421189302386   18.15610853765733
H        11.57600493831560    7.13326181265631   19.46536344859263
H        10.55874206655036    7.87185284852258   18.21826053669260
C         4.51369605924135    4.93872516242392   17.87939230698907
H         3.58618220490416    5.47997618641882   18.10089033425707
C         5.63135304027825    7.52217622416123   16.98882164397456
H         5.80114039555706    7.11157504235431   15.98586604264475
C         6.71215121284369    8.56297075938529   17.27303396505565
H         7.69717659263946    8.08857231658263   17.25583420711638
H         6.56377934669506    9.01493623002266   18.25346072310969
H         6.69640410247178    9.34965282737232   16.52083195231323
C         4.24227424537542    8.14162977630711   17.06275445768886
H         4.16456415742325    8.93855032507871   16.32399108347577
H         4.06617929725161    8.57682060760113   18.04449954672486
H         3.46222666184043    7.41352839235389   16.85209194660279
C         4.49486998327543    4.43353013949505   16.44095115607193
H         4.26760502730468    5.23702378669753   15.74379833254455
H         3.74397442087604    3.65331580146883   16.32262758161262
H         5.46719127589461    4.02180777039948   16.17594115012981
C         4.67320713360189    3.78566166810286   18.86610465268910
H         3.85615631742785    3.07315400223690   18.76236000190455
H         4.68094802879607    4.15516942832270   19.89153497150340
H         5.61110577855780    3.26327761910481   18.67705878870482
C         4.48558429270394    7.29948914615928   20.30159212716779
H         3.54616904391693    7.09362402412611   19.80908495563144
C         5.70312095590193    8.31232742988835   22.10515305542125
H         5.71168140865719    8.90726589206890   23.00697269372658
C         6.88732889218558    7.04757682967219   20.43800750471410
C         8.16917904294856    4.95700715611649   20.06314638807281
H         7.26495540571143    4.45402993942318   20.40736314726790

