67
CSD_code = QONGAD | q = 1 | S = 0 | Stoichiometry = C26H38CuP2(1+) | MND = 4
Cu        5.66038573144205   11.36473219989447    4.15265753666246
P         5.06325493069377    9.28432449317481    3.57015357732201
C         3.12870204786510   11.69470385035402    3.84811784382703
H         3.29139843343264   11.37287629040455    4.87092431508236
P         6.02031344402543   13.47227826703277    4.82302190443782
C         3.13509627317343   12.99584496086155    3.55232322788766
H         2.90370535359285   13.30755624242238    2.53976267175988
C         2.74131092519594   10.65744597627588    2.87840407014763
C         3.47439737455996    9.47413019395226    2.69720881265024
C         3.02445080720858    8.51729851137246    1.79121109078200
H         3.59065850655987    7.61211117080881    1.63418765137015
C         1.13657178187180    9.88388328363866    1.24368384442118
H         0.22944024682935   10.04733520303076    0.68311093498716
C         1.85839060241678    8.71414049625863    1.07473651842804
H         1.51867190176299    7.95952265092667    0.38250507155550
C         1.57795293516665   10.84395261405336    2.13515168898176
H         1.00412733658905   11.74714088164189    2.27929961122004
C         3.30203256956397   14.09214685480736    4.52232763646948
C         4.48920605440643   14.38748673526903    5.20626655425577
C         4.50424530820391   15.44208125137965    6.11917201362747
H         5.40897398610763   15.67782627903769    6.65764133028881
C         3.37196621369787   16.19777668170116    6.35433361297111
H         3.40383304268888   17.00589828095309    7.06846206824934
C         2.20461551128170   15.92225799987721    5.66137328376256
H         1.31913252518018   16.51522080869693    5.82858315084871
C         2.17736056980381   14.88334017378824    4.75161197710411
H         1.26738849872930   14.66338826427839    4.21276189289769
C         6.17993794144733    8.44801121664668    2.34401106669725
H         5.72997050002744    7.51626824950564    1.98955106158958
C         4.73283485065989    8.02529426910124    4.90573449140108
H         5.71104759809129    7.83160935555340    5.36541130271087
C         6.36564563609644    9.40541658855459    1.16865431733539
H         6.79607442416941   10.34740195335130    1.51286469998132
H         5.41550524168457    9.61868731827022    0.68054101830261
H         7.03903647141030    8.97366444539455    0.43189532804734
C         7.51477981327086    8.14454235854074    3.02014166716690
H         7.40875451176180    7.38384729109376    3.79033778161677
H         7.92554842631885    9.04674676878290    3.47533419372328
H         8.22970945609367    7.78079920553457    2.28548609952540
C         4.14220676253708    6.71531637807470    4.39957671018762
H         4.01500868618117    6.03260474056723    5.23735252802674
H         4.79312526220143    6.23238291608564    3.67452574814578
H         3.16529306311398    6.87891685794123    3.94950678642857
C         3.82311779162643    8.67085365113427    5.94968043898917
H         4.26261383928938    9.59227282111586    6.33445570940569
H         3.67485265551247    7.99371191030630    6.78792160329305
H         2.84713456823587    8.89649058363608    5.52132559119730
C         7.02545138523263   13.50934205152734    6.38358898776867
H         7.16695753853771   14.53713797082403    6.72877320620594
C         6.89252453341208   14.60183564006298    3.62207383389721
H         7.85073742647322   14.10757733440029    3.41324151793405
C         8.38849118799469   12.88250483755955    6.09987692444271
H         8.94673480705170   12.76870324349977    7.02646612743311
H         8.97835653340168   13.49926504279305    5.42549297279621
H         8.26821530541952   11.89453044563029    5.65213214676302
C         6.26500896681306   12.71049524392054    7.44017756400969
H         5.28592822732824   13.14617324531008    7.63520910363785
H         6.82242529507685   12.68931335686519    8.37381855298297
H         6.12540108119975   11.68144592194716    7.10460378095412
C         6.06814371168809   14.63113933826036    2.33596499718508
H         5.12784287564987   15.15567105742787    2.49750988464116
H         5.84732517296857   13.61903232250974    1.99197256865115
H         6.61383152814912   15.14797244572828    1.54984662005058
C         7.15100363475999   16.00804227385338    4.14691072629985
H         7.78605850722624   15.99824458232380    5.02965552016394
H         6.21657078025587   16.51121546345662    4.38709555691288
H         7.65761108959765   16.58961868702134    3.37938737153677

