121
CSD_code = QONGOR | q = 0 | S = 0 | Stoichiometry = C42H70N2O4PdSi2 | MND = 4
Pd        6.01715306657545    4.73649709685202    7.94574654577739
Si       12.10780738911629    6.26356497782310   13.02279038746297
Si        1.21581480257012    0.15283262188788    3.11232872280204
N         4.10392741966933    5.03308961632944    7.87922928800146
O         8.00755228593752    4.52540194498860    8.07159918107511
N         5.95239430630457    5.72267991541572    9.61239253013880
O         5.97413606906144    3.67343709292253    6.24530492358565
C         3.58737219288414    3.59357713364743    5.99626634998871
C         3.27264738231203    4.50162771398519    7.04378299787305
H         2.21472297030598    4.76223406149519    7.13681312618915
C         4.92876191413445    3.21546038641478    5.65387489523534
C         9.27321743596832    6.42823745359140   10.93124533113911
H         8.91999860064921    6.97971474799687   11.78953493294430
C         6.96608893689750    6.09483586081433   10.32389696602008
H         6.76815504804774    6.63956883905625   11.25131780198534
O         1.62420701458118    1.66759772258666    3.58491859701804
C        13.92082163123698    6.88975868478578   13.02660073627029
H        14.40606494279091    6.54751342043994   13.94547053208967
C         8.33852566670059    5.87087042032568   10.03073691725680
C         8.79448320449569    5.10567444896168    8.90533567367068
O        11.53674982803940    6.80796985043560   11.58335775602198
C        10.20593216251659    4.80935519555357    6.22679463155832
H        10.54226374928049    5.84178411900149    6.15364054341046
H         9.11999008292707    4.79052534852982    6.20114217230940
H        10.58128515642958    4.25962151750532    5.36665712439451
C         6.52829335041040    0.83068058354639    3.04737275925621
H         6.09940481740678    1.25743225603305    2.14354201545232
H         5.98658515732415   -0.07547504463652    3.30972603848408
H         7.55760296798484    0.55300507282997    2.82982601186760
C         2.49655464639506    3.05732384865711    5.27768039523724
H         1.48948120478678    3.34084969870857    5.54450799275710
C        12.06620647086016    4.33774478866051   13.01087767141857
H        12.43709294927478    4.02793010597316   12.02699469880778
C         5.10590038517366    2.28248791437999    4.57153051854777
C         2.23112297356855   -0.39086162959813    1.56732417166600
H         3.25983250999869   -0.61110842451999    1.87292917309449
C         4.59382484897063    5.94416314999247   10.07651347827590
H         4.51962456397328    6.86193687763355   10.67481153671528
H         4.29788102582248    5.09472713599196   10.70841013783665
C        12.25795184979876    4.14412840976324    7.45195336088062
H        12.68571035299205    3.66079569647357    8.32733572740116
H        12.66722186484400    5.14749801444732    7.36019215104679
H        12.56278463524473    3.57659413834087    6.57509480133865
C        14.01513226755522    8.41348057406208   12.99480520804451
H        15.05470765141044    8.72992862396460   12.91311968093899
H        13.60207108042525    8.84826546502808   13.90068467767914
H        13.46819326168642    8.80662819465392   12.14202704469520
C        14.69905942241164    6.31229531402075   11.84411843834320
H        15.73474817338438    6.64960249897011   11.86580234912986
H        14.25296865127265    6.64334778155858   10.90972549572755
H        14.69401960157670    5.22550655381914   11.86242850193973
C         2.69656883897595    2.17086678893670    4.25691389730971
C         2.95344254768559   -1.46888335233015    4.75131317061596
H         3.05843570237753   -2.17624685456808    5.57350078143486
H         3.54432665999945   -0.58648702042807    4.98808079858970
H         3.36108538548993   -1.93069020708034    3.85563457100163
C         2.29975611133827    0.73190907780167    0.53198183722309
H         2.93197301645835    0.44362853239944   -0.30723748654179
H         2.70401169726378    1.64032957478573    0.97176914582669
H         1.30803679535930    0.95675444771700    0.14690609514018
C         3.66182726332668    6.01240667430210    8.85598205940142
H         2.61834131811157    5.84079700930689    9.15221971293100
H         3.73327968063747    7.01189725833766    8.40410709471915
C         7.33881305096992    3.06224331233179    3.77108227479030
H         7.41148872934641    3.77547949117309    4.58602456025275
H         6.87193471533272    3.54899766850965    2.91700541694022
H         8.34295533829051    2.75338876040849    3.48954185508628
C        10.64511460777317    3.78859896759865   13.13722372659090
H        10.64374072959819    2.70588632728740   13.01573908247668
H         9.99516756590785    4.21585980971979   12.37705375312552
H        10.23090208279405    4.01632174619151   14.11683520121647
C         4.00522309065017    1.79944841955365    3.91409973067893
H         4.10676263228927    1.10549080482113    3.09884118878205
C        10.61415709757485    6.26932673522762   10.73314976922958
C        11.06964510911178    5.54197883439470    9.62212753489002
H        12.13790861162322    5.45322096429517    9.51873413230287
C        10.21604827983460    4.96588818016163    8.71889521396806
C        10.72756062355779    4.17231127304613    7.52293483485795
C         1.48327645137831   -1.09298740773015    4.55845560050134
H         0.93585091700311   -2.01639480759222    4.34642025322921
C        10.56536653389897    8.41054611302508   14.16865789252435
H         9.82165033275580    8.72466112747317   14.90087797987774
H        10.13441426784137    8.50322702508644   13.17561792547672
H        11.40786211963723    9.09309629642831   14.23036364380940
C         6.51605360749926    1.83984124370138    4.20069667901682
C        11.68517886316805    6.89261985159007   15.80758336441147
H        11.02725352311693    7.28443236575686   16.58259347780031
H        12.60309752302197    7.47492726356652   15.81624369498181
H        11.93412423364887    5.86572650102182   16.06014680781903
C         1.67937064286968   -1.65927823064980    0.91923771472218
H         2.30496836942179   -1.96467684814870    0.08134122868294
H         0.67399288806955   -1.48736473516846    0.54323061859883
H         1.64404702605372   -2.47701034543472    1.63499004267074
C        -1.43191699732147   -0.91313748905017    2.84426942384217
H        -2.45417837141428   -0.78656304879197    2.48918587606033
H        -1.47271128445588   -1.17924366167088    3.89746173900515
H        -0.98395294908307   -1.74148304980901    2.30237897566946
C        -0.63316588016087    0.37323341830340    2.64370745825119
H        -0.67898829350256    0.61705541362941    1.57756931789756
C        12.96221739498085    3.68644737919012   14.06258010768610
H        12.96116951637430    2.60322215684038   13.94620083211101
H        12.60695851231739    3.91581854760113   15.06407014716749
H        13.98656948110247    4.03803389472153   13.97620926470176
C         0.93767043222364   -0.52236229079771    5.86788730925817
H         1.07448843773917   -1.23274351240222    6.68276111181079
H        -0.12293406521925   -0.29975821751731    5.78570527127599
H         1.46084897440341    0.39583153642626    6.12619268683805
C        -1.30652204334408    1.52111072863599    3.39339872807739
H        -2.33440563426057    1.64675025808074    3.05448362334982
H        -0.76947099356078    2.44978526397593    3.22641354029004
H        -1.32209735755151    1.32477798104712    4.46259032048084
C         7.17029907368320    1.17238643337474    5.41926270296876
H         7.23815427717133    1.87263236438264    6.24721534964404
H         8.17384723363203    0.83895197858476    5.16538733814614
H         6.58666904972721    0.30928607996895    5.73451818316646
C        11.01094952246804    6.97273392487474   14.43913010030436
H        10.10079499824347    6.36356197070485   14.48747753291300
C        10.23056462053730    2.72374095915245    7.62901447580548
H        10.58472372097783    2.27082932274821    8.55311261268566
H        10.60399470427036    2.14081037701448    6.79018544383557
H         9.14565939495751    2.69366485384310    7.61620094893945

