85
CSD_code = QONHAC | q = 0 | S = 0 | Stoichiometry = C36H44Cl3OTa | MND = 9
Ta        6.24097206124520   -2.47679828380851    5.10704396815257
Cl        7.91641282871478   -3.96814078112374    4.43898113015811
Cl        4.63984509396374   -0.79894436911724    5.54483864644237
Cl        4.94544149768683   -3.26041651543802    3.46493044373392
O         7.45790497849765   -1.42448488363099    5.90066910818101
C         5.31360697664485   -3.94254007047416    6.85007553728049
C         4.12179970266715   -4.55977979801689    6.20956663814136
C         4.40846826830658   -5.84942902445734    5.91410450920889
C         5.76762572936677   -6.15395243503258    6.36293998042696
C         6.29621718371401   -5.05263968114826    6.94350271679023
C         5.06023173188313   -3.14480408031796    8.10756377776617
C         2.82033921467313   -3.84188625865096    6.04696851689121
C         3.53999439328012   -6.85965728061169    5.24778731781798
C         6.38773620718188   -7.49634956817217    6.18630382290700
C         7.61838580199598   -4.89691718997403    7.62075086578066
C         8.34323589076561   -0.42642189740500    5.97123762227877
C         8.85569977110623   -0.01911259511407    7.21410816387006
C         9.78998079071106    1.02072108780234    7.26221303494127
C        10.16040212070073    1.60054979963632    6.05488933322639
C         9.65546965753369    1.24443446417695    4.80905783468756
C         8.72279065735024    0.20685886671184    4.76841311258562
C         8.30885072733215   -0.73295022018900    8.39494033189272
C         7.13615279372527   -0.28135993709852    8.99344987861796
C         6.64822309869402   -0.90102423433558   10.13104306247399
C         7.31135295950425   -1.99322975094965   10.66775125657981
C         8.44277939960936   -2.48596380080090   10.04024129618338
C         8.93494397742364   -1.86530393749394    8.90375939969690
C        10.40402560803063    1.54507476541660    8.56363779156343
C         9.30656463145878    2.09739985110493    9.48409118543274
C        11.17739625734108    0.42870359332527    9.27934387230716
C        11.39985240243962    2.69072045502486    8.32634248720881
C        10.12868859404855    1.99237291597962    3.55997857754579
C        10.81569690442770    1.02218329560368    2.58882414838291
C        11.14704857803175    3.09542951613987    3.88461108579814
C         8.94055990575231    2.67326364722982    2.86643007182182
C         8.03945941279765   -0.29948807795822    3.54959242189634
C         6.79301305704486    0.21806087711484    3.18726853183121
C         6.12417403741930   -0.27525547081953    2.07817331450295
C         6.68280381449109   -1.29717601295704    1.32673723456174
C         7.90704364326277   -1.83237306947593    1.69225809155014
C         8.58030398191155   -1.34417460279824    2.80085310224698
H        10.88161835140447    2.39040275735746    6.08628678480424
H         4.61532339519581   -3.79926655535996    8.85908854555700
H         4.37245521189603   -2.32250600802146    7.92076542052596
H         5.98909956717415   -2.74838119920313    8.50736610164784
H         2.26055552015739   -4.24163261330876    5.20507028540524
H         2.97720000587578   -2.77833848045466    5.87829885574918
H         2.21166864259201   -3.95780773948021    6.94584669252755
H         3.95531751166926   -7.12239457677400    4.27435629065329
H         2.53429264803883   -6.47669885529143    5.10215936077304
H         3.48578727652797   -7.76916279867150    5.84460486890203
H         5.89061242148498   -8.23307743816384    6.81809888272287
H         7.44247919533021   -7.47576246265569    6.44448822527275
H         6.28752830314243   -7.82033113421422    5.15162104490782
H         7.51272445753102   -5.04105087676090    8.69749391785855
H         8.02328363549262   -3.90028292694805    7.44627557448979
H         8.33150377630749   -5.62665617304718    7.24659995833912
H         6.61800838792529    0.56687057619242    8.57064015408162
H         5.74847889556753   -0.53055248305970   10.59887937802386
H         6.93778627283270   -2.46749479045106   11.56283744272563
H         8.95048854639471   -3.35192931182243   10.43868653982334
H         9.81882073210019   -2.24931517165610    8.41458293197958
H         9.76023430900616    2.59718650209402   10.33737288917787
H         8.66451964563802    1.30866730910866    9.85953296435594
H         8.69483727560608    2.82031704567492    8.94860862600742
H        11.86905337388544   -0.05214088239750    8.59082140606885
H        10.50895274290163   -0.32188108625222    9.68532482925387
H        11.75063050346003    0.84853322982770   10.10325053218818
H        11.79485954779943    3.01595474924119    9.28676342469305
H        10.91939000976591    3.54889842238591    7.86272150684376
H        12.24162461908360    2.36912126425017    7.71774628188380
H        11.29570758077665    1.58146994768385    1.78853257378185
H        10.10388701935041    0.33872897860068    2.13984476894713
H        11.57753738358859    0.44463481601681    3.10805398646296
H        12.04887842360071    2.68673641178339    4.33409251997106
H        10.72168844056074    3.85131667620963    4.54038036413269
H        11.43660206397690    3.58916761652318    2.95914246849095
H         8.38765805653309    3.28312700120219    3.57772535311333
H         8.26406717703740    1.94773431189213    2.42887500360591
H         9.30200251617715    3.31938785504879    2.06922080959202
H         6.36198351298127    1.02189335872023    3.76956610142052
H         5.16656666509604    0.14099329154686    1.80210019668823
H         6.16097860102892   -1.67971702768271    0.46266819126068
H         8.34088207075575   -2.63697563593345    1.11755992305444
H         9.52953136408310   -1.77238520162618    3.09087479890129

