45
CSD_code = QONHAD | q = 0 | S = 0 | Stoichiometry = C18H18Cl2N6Zn | MND = 4
Zn       -2.11479624384738   10.09958972565672    1.26147672581549
Cl       -1.02856611214149    9.48486714955568   -0.70877069858874
Cl       -1.09340329270807    8.92456026215305    2.99821680705789
N        -3.75894312608112    8.86010972808001    0.82233462641187
N        -1.10388611415792   11.87330609579169    1.77740289231889
C        -4.41592322553726    9.13915235758544    1.94999007733711
N        -3.92136355428666   10.18917558886805    2.61384133227805
C        -1.62237110908247   12.59292357016142    0.78020128642523
C        -4.27229555969975   11.80712145940710   -1.57866519064034
H        -3.80141382710827   11.06088686659995   -2.21898857439297
H        -4.89571663468584   12.45676996963678   -2.18691229233156
H        -4.87642507951510   11.27351891307025   -0.84947639498276
C        -0.04545107025954   12.31161219054494    2.44712127341413
C        -5.51513942756775    9.80646860929472    4.33190335746015
H        -5.90579212976387   10.10214202348053    5.29333207775739
N        -3.41135559022320    7.60484360557867   -1.03725012455623
H        -2.55043709905858    8.16445051066066   -1.15101264789630
H        -3.52641308980925    6.75049239158426   -1.55341135858964
C        -4.10581695154314    7.81664297251591    0.07953900358975
N        -2.65375378496104   12.00015072301603    0.17026186688418
N         0.41115865035464   11.54475988774907    3.43573727037482
H         0.01327902134077   10.59314691646422    3.49497385043533
H         1.29223921670223   11.74910848523181    3.87330780172739
C        -5.50664537562092    8.36946004715076    2.41751068822428
C        -1.10131433777338   13.84620734164294    0.38179007770851
C        -5.89587606206720    7.26940825806378    1.61133813226389
H        -6.72427108908264    6.65202489763967    1.92901406628793
C        -3.19587200921988   12.56773882926273   -0.88385905633472
C        -1.71191420516327   14.45897425134909   -0.72187768798460
H        -1.35016242842448   15.41581905564435   -1.07135359789654
C         0.01400954382747   14.32852728157716    1.11327375477014
H         0.44671163323454   15.28173122693184    0.84403352198909
C        -2.74809535265510   13.81703843850058   -1.35536117706039
H        -3.21968006036895   14.25535779158511   -2.22127929251259
C        -4.42625551777174   10.51174744898749    3.78326651433457
C        -5.21445277020160    6.99559160805493    0.46784079640296
H        -5.48092734919966    6.15712600483081   -0.15763706468892
C        -6.05966077882398    8.74569942244572    3.65014152553602
H        -6.89185437896052    8.18797456210355    4.05628984713741
C         0.53324982567714   13.58224437945308    2.12340288516522
H         1.38955826593021   13.91921055190458    2.68770712055042
C        -3.76596023781827   11.62657494105426    4.51911333913056
H        -2.91742454642176   11.21694596307544    5.06789732809180
H        -4.44566329605344   12.10265924019233    5.22105104811123
H        -3.37631333940041   12.35423845585693    3.81204426346068

