81
CSD_code = QONSUI | q = 0 | S = 0 | Stoichiometry = C42H32O4P2Ru | MND = 5
Ru        7.30211755561659    2.98780201735407    4.92593772165597
P         6.04192758025928    4.73227693681227    3.94421515190242
P         9.15350053411475    2.92883524468163    3.47175828401903
O         6.52054947936551    1.31855097170587    7.32833840322475
O         8.73084691029925    4.64045124616356    7.00690782225900
O         5.94920761205547    0.91672857619541    3.19912397298247
O         7.13061483920523    3.60270718461680    1.68228020729998
C         6.81228825573536    1.95203885510122    6.40669000283877
C         8.18816173383395    4.05895399354672    6.17111023505309
C         6.45465528823911    1.71200916091005    3.86386149137979
C         4.77048624545560    5.55020649554221    4.96896203835507
C         4.39458343620079    4.95569408106051    6.16619235686323
H         4.88623631249093    4.03586560634390    6.47078302273397
C         3.41372522212859    5.53216797355655    6.95371892097925
H         3.12500437179079    5.06564560064715    7.88417579446430
C         2.80730481126033    6.70938360277824    6.54882750447141
H         2.04313347686902    7.16325068860330    7.16263794755149
C         3.18189592754748    7.30915519093042    5.35603949583589
H         2.70810296075178    8.22802398738389    5.04170333339541
C         4.15926214239759    6.73456797701938    4.56557970170861
H         4.45186772505299    7.20050518117243    3.63416726697226
C         6.87104170909290    6.22585231655686    3.28754648595603
C         7.65413000432096    6.93205205984684    4.19655671359989
H         7.73880087592662    6.56690627991037    5.21322794691552
C         8.30938537741474    8.08402023517165    3.81101567854012
H         8.90815502878595    8.62987023403457    4.52521224484179
C         8.20096357875630    8.53545047532611    2.50530736571875
H         8.71681739295353    9.43330859538347    2.19846779283139
C         7.42912529613300    7.83475366679947    1.59537915515068
H         7.34017730193900    8.18761694292772    0.57760691414920
C         6.76030478882134    6.68637504884804    1.98178334648405
H         6.14532448693185    6.15831668193042    1.26673294505362
C         5.77845519720338    3.62471231023276    1.48631482931327
C         5.03998425410358    4.21873243936143    2.51216722492053
C         3.65747228726405    4.24416686726243    2.40608555043832
H         3.06170179719312    4.68215712843497    3.19302018538679
C         3.05204245208931    3.68268470473724    1.29491303975287
H         1.97571168810492    3.69846830350515    1.21069364705844
C         3.80281102959892    3.09037308644655    0.29212962493186
H         3.29254059721697    2.65618120002127   -0.55228971913884
C         5.18897727987204    3.04934480938888    0.36786765272289
C         6.11304733592092    2.47833638638905   -0.69486078091550
C         7.30471928690314    1.86639742780191    0.02348129936647
C         7.99725879685286    0.73775850573522   -0.39362749845803
H         7.67772968303533    0.19804095643111   -1.27022897341567
C         9.10173714514714    0.28130173082036    0.30719037006264
H         9.62019714996517   -0.60084438118830   -0.03748346676469
C         9.54029653909386    0.92738643453081    1.44964475284930
H        10.38354059644685    0.54371011580648    2.00414260538416
C         8.87122375730157    2.05866598438292    1.89434680632330
C         7.76821879967157    2.50976981955175    1.16534006220335
C         6.63187219496665    3.65530463216781   -1.54651096723139
H         7.13936073914876    4.39034224683895   -0.92418622673807
H         5.80164767632153    4.14598327710709   -2.05073481090772
H         7.33426375943695    3.29364938846972   -2.29494315641220
C         5.40382699235279    1.47570682394038   -1.60299734721969
H         6.08503670500830    1.10841459917605   -2.36594642509226
H         4.57280681647749    1.95281886257696   -2.11568866713697
H         5.02891630374907    0.63367817856468   -1.02574380131689
C        10.65692241876055    2.07624059641774    4.06400080499441
C        10.56994216357015    1.27276865756352    5.19289403609848
H         9.61267584168144    1.18753602323024    5.70109604022484
C        11.68654494492205    0.60135448401663    5.65914384664045
H        11.61389933609235   -0.02151689714276    6.53856028255686
C        12.89652431580718    0.73311318342892    4.99882798223929
H        13.77068566993881    0.21327157254142    5.36259833080929
C        12.98897376842251    1.53479524831218    3.87097113108429
H        13.93388724626129    1.63674965546273    3.35689343805881
C        11.87537786993387    2.20528671824047    3.40165854895962
H        11.94479728214486    2.83212841419282    2.52248117896140
C         9.93154216221204    4.48927856253089    2.91882156274853
C        10.55926847611162    5.23578455148920    3.91406372327399
H        10.56924057571486    4.85801193863724    4.92942333032440
C        11.17104384711765    6.43458421296496    3.60950233706202
H        11.66513087122383    7.00099959086790    4.38536123806232
C        11.14802103426428    6.91061687152844    2.30784593446964
H        11.62213562066676    7.85060758933511    2.06692452345518
C        10.51817235883003    6.17843618042461    1.31731374191272
H        10.50095756670976    6.54721700860902    0.30161731179707
C         9.91452919466642    4.96929840516233    1.61613599194769
H         9.44363231270606    4.39775248482316    0.82982160916404

