116
CSD_code = QONXUM | q = 0 | S = 0 | Stoichiometry = C63H31F15N4OPRh | MND = 4
Rh        1.93665691170005    1.60214106384174    3.55435366031939
P         2.96739334754806    0.11020671150120    2.18554424861575
F         6.74309948678958    3.53501650992039    0.57853246521389
F         8.30495306795753    4.94754313201104   -1.09643246419434
F         7.99836220743798    7.65346210033361   -1.32028819236736
F         6.11578882993863    8.92684927636622    0.19599232419223
F         4.60080172251736    7.53054828570747    1.93632597412588
F        -0.17525959034223    7.37220128663648    3.16590122160190
F        -2.50402453684294    8.49312024067274    2.44135005831072
F        -4.75823903100283    6.96781679987317    2.20162402672979
F        -4.61953174112730    4.27921212164035    2.66629753501190
F        -2.28532218698127    3.13663230320406    3.34198446938027
F         0.81016669263941    2.18366172967833    9.16123691066679
F        -0.10579474920943    0.86036522814427   11.33918114608716
F        -0.57795250006488   -1.82295578391645   11.20982313716715
F        -0.13402368068715   -3.16828922201731    8.87736832605964
F         0.74692280800086   -1.82958536033921    6.68909543161965
C         5.25321406406380    1.93596136024607    4.42233657593990
C         6.59939958244577    2.34304307832113    4.37114197594280
H         7.40948331124959    1.89785152487632    4.91335179289137
C         6.68008864320546    3.42382008764188    3.51311982681605
H         7.56452605667640    3.98282207906289    3.27741659471443
C         5.37858708801509    3.70164030564246    3.03939100366574
C         4.80155220570984    4.73622507980957    2.26154829741976
C         3.41480173040566    4.99739742229710    2.31887977931109
C         2.60226939027688    5.44552104527146    1.24931384377381
H         2.96319675093717    5.71930140309557    0.27702551058008
C         1.29712390090385    5.37287646839418    1.64822648983105
H         0.43275495427073    5.57307616824999    1.04609598635570
C         1.26456907306765    4.88931439883395    2.98160135717875
C         0.10991556407282    4.58818205803087    3.72434345634039
C         0.03024064073635    3.65507113620313    4.78832757970927
C        -0.96571357736943    3.61712931438735    5.81885251165365
H        -1.75921147015435    4.32864897078071    5.94250952139149
C        -0.67214270353090    2.55896779799984    6.62121507152782
H        -1.20842809498836    2.24140509558170    7.49369872699054
C         0.51349459625358    1.94994480399642    6.09433305853183
C         1.26825600615105    0.90701327929078    6.65768015701331
C         2.57596167156774    0.59839037424925    6.23828829288883
C         3.62535889380781    0.02602054179591    7.02775376467143
H         3.49390668340191   -0.49669285186684    7.95589705832672
C         4.80354278693810    0.34763855158705    6.41476797988721
H         5.79853355067803    0.12831606331009    6.74829178308889
C         4.47141318196196    1.08885855662021    5.24437391552334
N         4.57326987517504    2.75985051454926    3.58467381125714
H         3.55572287774981    2.61889377517137    3.39351582736356
N         2.57450589181923    4.68590803727565    3.37688888434353
N         0.89592569938934    2.63733331589553    4.97531568536255
N         3.12314840281789    1.16188953581732    5.12851102775979
C         3.00009078297701    4.80134256022860    4.76642143877295
H         4.06515398665580    5.04978603129550    4.76436378966560
H         2.86292646702287    3.85620589056459    5.30275827846393
C         2.24175861811912    5.88912117906293    5.48577680123970
C         2.20782168985844    7.17630535745249    4.96461145323945
H         2.72513398265126    7.39909761241981    4.04294973689314
C         1.50480155063430    8.17278078768654    5.61622423314609
H         1.47852961267264    9.16764587175661    5.19945323999548
C         0.83278508909754    7.89252150818035    6.79422345872014
H         0.27904742901238    8.66989715039060    7.29929910958740
C         0.87749984254402    6.61546959615136    7.32625367677174
H         0.36282889644433    6.39132817410773    8.24864379571209
C         1.58120660014630    5.61729045499674    6.67544500427809
H         1.61848709969565    4.62429451261236    7.10015923089244
C         0.77618549883875    2.02009603911290    2.19476783479439
O         0.07606276097335    2.26068918882022    1.31816026554670
C         5.62479429047271    5.48696552348033    1.32521123201453
C         6.59821192424663    4.86656045185899    0.53129012815209
C         7.39451932622277    5.58156047051539   -0.35134006061222
C         7.23632127236566    6.95956014087242   -0.47290311345220
C         6.27238308973115    7.60488970847310    0.29800154289667
C         5.48708185821946    6.87407255259730    1.17739407903622
C        -1.14801514616730    5.21698577543391    3.31254837047563
C        -1.24953584817410    6.58630646084282    3.04401992510050
C        -2.44997606774449    7.17874846624152    2.67414562538438
C        -3.60062380241459    6.40551904978509    2.55297637188271
C        -3.52748644879865    5.03723379548058    2.79707261642993
C        -2.31904285567570    4.46197202454122    3.16672630871174
C         0.76924383423848    0.21491437866386    7.86060431168389
C         0.54814295583708    0.87548535573309    9.06742392107762
C         0.09388900638224    0.20178417096398   10.19547083904568
C        -0.14299047340837   -1.16853807358099   10.13298971711972
C         0.08492713233373   -1.85300662892186    8.94253634285724
C         0.54010609382893   -1.15992612638275    7.82720084031337
C         4.72021515862723   -0.33947941508456    2.42443698934328
C         5.74370756175464    0.26081661939831    1.70018729071164
H         5.51531866312314    0.96091906077700    0.90994143322736
C         7.06296046705101   -0.03757584506785    1.99038054742697
H         7.85091130113277    0.43417195815427    1.42325855298903
C         7.36956048979694   -0.92890821964096    3.00471587591793
H         8.40053417830463   -1.15914034052009    3.22875667482854
C         6.35259339413736   -1.52619369140306    3.73260261840655
H         6.58804828965348   -2.22136758033042    4.52501403224958
C         5.03341610914010   -1.22833285249015    3.45077328424256
H         4.23714765139576   -1.68677811307229    4.02255013087223
C         2.92442098135092    0.53863203072771    0.41269800505383
C         2.55802424159921   -0.33859458846463   -0.59862896502008
H         2.26678394436366   -1.35119404803182   -0.36110932331540
C         2.54852852768643    0.09035874927162   -1.91526958673902
H         2.25921920203928   -0.59517130546773   -2.69802022324022
C         2.90341784106761    1.39050988577459   -2.23112427366165
H         2.89621752601518    1.71799757640946   -3.25983002040534
C         3.25445896918610    2.27514981297319   -1.22360541304547
H         3.51927766191792    3.29433034359193   -1.46412194319545
C         3.25629674640631    1.85381711326493    0.09140651213629
H         3.50631872159677    2.54873846248414    0.88448234397357
C         2.16083010075776   -1.51364372125659    2.31523239345133
C         0.98187255423478   -1.59020981369707    3.04980612097766
H         0.58421426168546   -0.68511239934172    3.51036661040081
C         0.33432137040237   -2.80267193685505    3.20197670740343
H        -0.57625828002001   -2.85984718680893    3.77856802625650
C         0.86225950748286   -3.94366346200067    2.62062890975342
H         0.35887908586486   -4.89160243406546    2.73807081314858
C         2.04357280415670   -3.87512144753803    1.89763707987030
H         2.45836897154584   -4.76885036139280    1.45481491384262
C         2.69825891690709   -2.66667932512045    1.74759543997720
H         3.63346874463128   -2.61512865335405    1.20565066841525

