51
CSD_code = QONZAU | q = 0 | S = 0 | Stoichiometry = C23H18N7O2Re | MND = 6
Re        2.71963761972823   11.10482008900362    2.68127807371813
O         4.44493903718456   11.28196589028166    1.46720341826648
O         1.21082218188196   11.47181883995700    4.10521723307151
N         1.53562086692827   10.45381737457318    1.26238409812156
N         0.95584836015993   11.23388488669439    0.42429787306137
N         2.04183521483857   12.82311159944281    1.70416404976103
N         3.02468005681936    9.42816352137423    3.18177177549179
N         3.10660980536041    8.25377233621412    3.36225328078252
N         1.83247735804574    7.50889106472133    1.58128390894185
N         4.06886727075783   12.13248049956745    3.97484831195135
C         1.21039752984266   12.54314069861168    0.66729727398130
C         0.64734510634880   13.55605575853494   -0.12298265126691
C         0.94849343523091   14.86453989724575    0.16477772022264
C         1.80321493858549   15.14299792472364    1.23344418218628
C         2.31968959546398   14.09516331379884    1.96541743431644
C         2.61867602551334    7.21189792984319    2.62493363118430
C         2.93658780110066    5.89873753860013    2.98965071468501
C         2.41732041438590    4.86945926214692    2.23207969310631
C         1.60338640394940    5.17304408320671    1.14633180460918
C         1.34730540440794    6.50727099130096    0.87150321179913
C         5.42705279966175   11.91408475164952    2.04368678737766
C         6.63068458190956   12.13950185600011    1.35471401676031
C         7.65714859406663   12.83616823023189    1.94727511775632
C         7.52132654416668   13.33111054269477    3.23990593120482
C         6.35540704128432   13.11862982806880    3.94374717542648
C         5.30031931242937   12.40580410046259    3.37290188424526
C         3.81955882999995   12.44357540460402    5.21247786483314
C         2.58699018697471   12.30642989631903    5.91247284174185
C         2.58164023292036   12.70214566855300    7.26682198155037
C         1.44944176933950   12.66863862084857    8.03479652581456
C         0.24919912526370   12.23729688527703    7.46337771476772
C         0.20953769879643   11.84521122355107    6.15294499227742
C         1.36281929280895   11.85076602774140    5.33039101210894
H         1.34912812332013    9.46011351306728    1.04713534163332
H        -0.00382389500738   13.27162203404066   -0.93212942360143
H         0.53377573419772   15.66920019577230   -0.42318199518534
H         2.06267238743961   16.15770483116091    1.48831528903524
H         2.98685745193770   14.28409575374645    2.79750222359216
H         3.57376229758636    5.72088398323784    3.84004658870531
H         2.64001788490747    3.84182060569002    2.47940700118084
H         1.17980828174676    4.39454836218372    0.53241332053646
H         0.71896718002588    6.79436836009100    0.03820813636342
H         6.71530619113864   11.75569804233653    0.34999212266345
H         8.57426260505941   13.00568589523883    1.40249176559260
H         8.32774896225252   13.88531190427159    3.69559371930334
H         6.27339016592685   13.52224347146279    4.94245600039073
H         4.61628634528402   12.88514672215876    5.80993756383507
H         3.51229633272662   13.04166858740472    7.70139176405052
H         1.47943476933705   12.97478708724512    9.06912313938574
H        -0.65099051685721   12.21210668057450    8.06000388779146
H        -0.70838073717200   11.50699743448460    5.69672467087994

