64
CSD_code = QOPBIG | q = 0 | S = 0 | Stoichiometry = C19H38N4Si2Ti | MND = 4
Ti        2.66648257091832    1.55006042853984    3.66049773100185
N         2.88238956075061    0.86821276713228    5.18602861975831
N         1.12340862600655    2.55959777035861    3.22127874824725
N         4.08925222915692    2.52008262883054    2.83301101986286
N         2.33755146382089    0.05228445357039    2.36411590022955
Si       -0.21254973028390    2.57275980583286    4.28070877273105
Si        5.66144325278597    1.87471833330296    2.98809298636605
C         3.07779721017393    0.30668022956220    6.46822968858872
C         3.40341079511889    1.39443809242199    7.51596473165446
C         4.25404315475598   -0.69900889242280    6.43174054652851
C         1.80292709689283   -0.44001213473719    6.92584695559862
C         2.48798546905122   -1.26177713390637    2.54641452946969
C         2.83623600548536   -2.11967669431617    1.52218965975390
C         3.06562050902696   -1.57279720343682    0.26239984729437
C         2.91362378633872   -0.20926239092320    0.07904525917347
C         2.53230328636977    0.60142887460970    1.15193891470001
C         2.29561483154066    2.08246253835912    1.03782764891246
C         0.98894353065905    2.45896080469436    1.80321779717261
C         3.51302297242143    2.92135397790567    1.59098489645094
C         2.10000466058986    2.50461653432451   -0.42708441885017
C        -0.82033654054612    0.75845678941927    4.53420571056211
C         0.53257266024521    3.34118232515603    5.86406829081804
C        -1.70467028663561    3.60818247332014    3.65880131789673
C         6.22847605558009    2.42197539069311    4.72879728908086
C         5.68736885700689   -0.05370609839418    2.87730509363932
C         6.87594105881504    2.51604364195619    1.64786793995797
H         3.60072580264163    0.94238703848766    8.48611620285057
H         4.28025577065361    1.95659895744082    7.20126407117118
H         2.56542270348051    2.08040161690719    7.60735652278178
H         4.41447392557661   -1.14062618283032    7.41322148484656
H         5.15869648676576   -0.18420360648233    6.11690834841353
H         4.03928805849596   -1.49422656227017    5.71831644902081
H         1.94601612219526   -0.87862325062967    7.91131882076514
H         0.97111940515935    0.25880174942064    6.95888857665252
H         1.56334386712563   -1.23220182148463    6.21735173862799
H         2.29527348159439   -1.61669918727611    3.55689504462890
H         2.93798219482524   -3.17864993317073    1.69718820071600
H         3.35639368834271   -2.20251079349478   -0.56502689992254
H         3.08977093939620    0.21309567944925   -0.89625875203906
H         0.65553930808150    3.43024011903308    1.39551121176826
H         0.21297564657029    1.72015686519880    1.50531136186477
H         3.12748696292134    3.95261114615434    1.68097696093080
H         4.27141934598237    2.92951182886984    0.79118263387831
H         1.87747428742502    3.56879066593438   -0.47149573996379
H         2.99703598589596    2.33617709908933   -1.01950258302970
H         1.26847594751540    1.96439096139073   -0.87797460221212
H        -1.36881335073909    0.61431026879953    5.45932809724066
H         0.06229045329041    0.11350698821574    4.54983627904645
H        -1.46632392956324    0.43301280776296    3.72163506894433
H         0.16814367184812    2.85660430771351    6.76303355820679
H         0.30892192435046    4.39988676541518    5.95063548241581
H         1.62008182692998    3.21313984105120    5.80571611353290
H        -2.50600920681707    3.62948687566805    4.38931867447405
H        -1.41298365484656    4.63465169070765    3.46041530458518
H        -2.11008785365030    3.19791383329037    2.73884635070933
H         6.75077086639964    3.37290075904054    4.70877586111003
H         5.33856185373510    2.53264619930335    5.34875078206232
H         6.88675586466763    1.69476049897979    5.19116935731904
H         6.64763504825443   -0.47410516333567    3.16033212738642
H         4.93032427346388   -0.44446025112352    3.55998930887136
H         5.46110716322797   -0.41227757814280    1.87333832092917
H         7.89917342116798    2.24959064648934    1.88782390802826
H         6.82822402180409    3.59716565507976    1.56740829031452
H         6.65319458979371    2.10008615348947    0.66940258648177

