80
CSD_code = QOPBOM | q = 0 | S = 0 | Stoichiometry = C27H46N4Si2Ti | MND = 4
Ti       -0.83328048814514    2.15386255100334    6.98623527552269
N        -0.75733934517507    2.02742530552384    5.28755229875141
N        -0.28396128935351    0.65948437321340    8.02921758136190
N        -1.83911374159087    3.55240250462913    7.78565862070663
N         0.76179717465765    3.19573537537633    7.47086020167106
Si        0.77174306788199   -0.51488030322658    7.36697823739254
Si       -1.96090991398324    5.18650951962881    7.29128642703369
C        -1.35671921116497    1.56399983209573    4.19292179421471
C        -0.61350528980441    1.23478578913962    3.02608773293130
C        -1.25824873346881    0.72501564217065    1.91892257675153
C        -2.62796294790373    0.51579389844169    1.92533852975956
C        -3.37090474916497    0.85046173120171    3.04762145171714
C        -2.77437441883806    1.38354429015849    4.17266033282515
C         0.87373516769746    1.49868276025396    3.06854237779527
C         1.15507041568859    2.92362427789035    2.57873804472403
C         1.69983290596298    0.48309171479781    2.28339933315355
C        -3.55002478343137    1.81921499342881    5.39923118447015
C        -3.35245774909715    0.82268935265265    6.55690707701051
C        -5.04372224553714    2.02212602324721    5.14528764351892
C         1.66647376626730    3.77323015745896    6.68056747007642
C         2.72063528227765    4.50810297473566    7.18127750899200
C         2.83222336195103    4.63779169384015    8.56423227231346
C         1.88150241590295    4.05069829985786    9.37597381609934
C         0.83117989063626    3.32699899353789    8.80444959820878
C        -0.25790641635856    2.66326435216808    9.58770750034184
C        -0.17392373349997    1.11174813922528    9.37501906686594
C        -1.68438558219036    3.19909368132088    9.15692242229245
C        -0.13044640074895    2.90602017762436   11.09736152778025
C        -0.14581721578058   -1.34100610051064    5.91347146283413
C         1.24291434400623   -1.85373172609288    8.65900890033301
C         2.42513548703380    0.27954044627995    6.77127669627122
C        -1.55025413191317    5.24635588912704    5.42803313408920
C        -0.74970260530338    6.36574818910074    8.22121396948980
C        -3.72522509598982    5.86667977754734    7.62676552956091
H        -0.69312662992158    0.47801115812973    1.03191302223597
H        -3.11796589466963    0.10251209660213    1.05590355992832
H        -4.43882473456280    0.68985347897958    3.02547871205684
H         1.16157387130131    1.43906961929502    4.12977999947102
H         2.21506311146681    3.16068553190761    2.66364882794059
H         0.58259519004012    3.63693474683449    3.16992601720359
H         0.85936452028159    3.02729796906640    1.53662109172082
H         2.75957410015699    0.62466627680056    2.48950295074959
H         1.42412013101455   -0.52922251333939    2.56858984095796
H         1.54812998475424    0.59772103058410    1.21258729945141
H        -3.11619714009444    2.78320236765424    5.72568791922000
H        -3.93505297786476    1.14281830144990    7.42687070961660
H        -2.27515648506048    0.77203963268841    6.82746475201280
H        -3.68843871969692   -0.17165963605671    6.25589142267720
H        -5.50575782304829    2.48621767972322    6.01539938706946
H        -5.20252879178266    2.67009941120778    4.28720523946112
H        -5.54357077973934    1.07253959501038    4.96426455873717
H         1.51430021097039    3.62696884159467    5.61345523785820
H         3.43873073191571    4.96580001789984    6.51995111463267
H         3.64771713692380    5.19609216453320    8.99908103689360
H         1.95900134533712    4.15675762596336   10.44535138072637
H        -0.99050289882773    0.68027258351853    9.98736012271628
H         0.77054276857663    0.78247220966143    9.84383967170258
H        -1.90049159300440    4.05628234467915    9.81480543291479
H        -2.40363658770002    2.40250704921711    9.43205636936327
H        -0.97061505934460    2.44092587299765   11.61031964997784
H        -0.14484896968609    3.96969165922169   11.32830490511417
H         0.78422951796299    2.46734373676667   11.49297552654367
H         0.51862591273767   -2.00050309738183    5.36628199924729
H        -0.98862743887781   -1.93495943340973    6.25449286448107
H        -0.51951701948157   -0.59090639573570    5.22173843050860
H         1.79388174918666   -2.66464018353168    8.19614945132756
H         1.86698849590961   -1.44608168772585    9.44865819051933
H         0.36032330939080   -2.27994911842456    9.12528770877016
H         3.09683951647976   -0.45146562630081    6.33319202826317
H         2.95561120963965    0.76161027830776    7.59124655709015
H         2.21721262846707    1.03873566695858    6.01875459980046
H        -0.85659133472848    6.04830529489692    5.19591861005233
H        -2.44268590935675    5.40938965535263    4.83365685090065
H        -1.10692711200030    4.29714247989246    5.11886391745759
H        -0.98393342243896    7.40614414965491    8.02113707092750
H        -0.81013564613988    6.22486570649914    9.29751465482760
H         0.28410562235302    6.19957984147818    7.92644729021765
H        -3.82814536204216    6.88148308479059    7.25772971109533
H        -3.95193061423971    5.88064377145016    8.68909919618780
H        -4.48127931219257    5.26000018376710    7.13776751263042

