39
CSD_code = QOPGUY | q = 0 | S = 0 | Stoichiometry = C19H14Cl2HgN2O | MND = 4
C        12.05756254357830    5.16506832108293    6.54554344240139
H        12.51925119413259    4.41289173266511    5.91896840573317
C        12.14174278635302    5.08208118633967    7.93933307858970
H        12.67314159526016    4.26258276595120    8.39643603549792
C        11.52975034294052    6.04860426549031    8.69778043405220
H        11.55503423055528    6.01336648664291    9.77762506303578
C        10.85735817203757    7.10314099496062    8.05672064329683
C        10.85341915940188    7.11393167582735    6.64266091379104
C        10.18466271225864    8.13160995796250    8.77528585555615
H        10.20468089546332    8.09508027506292    9.85456622588598
C         9.52551116184462    9.11952895464844    8.12357384848302
H         8.99977560593644    9.88918853420393    8.66952816695065
C         9.51163331435518    9.17583620037497    6.70232646566712
C        10.19733786394876    8.19463625433383    5.95375232224145
C         8.83279469628082   10.17854530495847    5.98418251229500
H         8.29032241386193   10.94095467320557    6.52505680472918
C         8.86427560966191   10.17132175218523    4.61567649753809
H         8.34485009922232   10.91578961628029    4.03508109554869
C         9.60553888278122    9.17607867361076    3.95099977683096
C         9.69598992964813    9.10821144118346    2.48742693688124
C        10.94192154817018    8.97096698075019    1.87468252123967
H        11.83767114153922    9.07000762003458    2.47726118477853
C        11.03948418967798    8.79941645503955    0.50429096860169
H        12.00878282586402    8.70654675580401    0.04018413231101
C         9.88416348861922    8.73974683842689   -0.25594405628497
H         9.94664466409220    8.58405952611034   -1.32249189174130
C         8.64045808982327    8.87698797299378    0.33421984471389
H         7.75752750293559    8.82018595939689   -0.28221168521202
C         8.52632135726312    9.07172971322888    1.70685324012021
C         6.15896059200703    8.85921798750240    1.69720685445670
H         5.92347608788493    9.56580196819107    0.89467612350115
H         5.37573069324958    8.90077411040763    2.45250685146889
H         6.22045798041424    7.84549930285636    1.29324773272706
Cl        9.06846216760591    5.59636662217438    2.63771520991044
Cl       13.30659876624507    6.14740498399628    2.82183505152263
Hg       11.11276117131088    6.26679449384803    3.42175409905708
N        11.43265801595067    6.13848078877000    5.92193723344039
N        10.25170794762508    8.23230170861113    4.61524683030225
O         7.34907856019435    9.21106114488743    2.36760523008245

