71
CSD_code = QOPJOU | q = 1 | S = 0 | Stoichiometry = C34H34P2Rh(1+) | MND = 6
C         2.75993982278416   -2.38537211165579    6.41461818293525
H         3.34320774632818   -1.73666273494957    7.05550489838450
C         1.40094802736642   -2.59778247287524    6.48984344944208
H         0.71001571952630   -2.13318803897097    7.17980779554475
C         1.12958161630242   -3.92874882871032    5.79156847050834
H         0.17320909310975   -4.40062036914686    5.99597398144071
C         1.42876609960428   -3.58741335782007    4.33342851112874
H         0.75634487322549   -3.81328092062680    3.51696420430623
C         2.78827169882191   -3.37872824649710    4.25061882296986
H         3.39294028464788   -3.42853929202752    3.35387758991984
C         3.34209806229377   -3.58496909749528    5.66248570528564
H         4.41340952087858   -3.74307834418526    5.74894387260321
C         2.40829012370452   -4.70051732768792    6.16289677392575
H         2.52085162159508   -5.63309719151867    5.61121940082407
H         2.49974923176512   -4.88861071639960    7.23205377359761
C         0.97806479217185    0.82554274065382    7.15612753281275
C        -0.25377926560517    0.29175466305463    7.53115669021772
H        -0.87413578568860   -0.19347884812116    6.78722155170274
C        -0.68113291211234    0.38068379695870    8.84196852743084
H        -1.63899197717942   -0.02783257244726    9.12684436751606
C         0.12389386370944    0.99295245658437    9.79058597822238
H        -0.20854783265200    1.06172906243113   10.81468614114164
C         1.35467471349259    1.51189498345755    9.42525550626257
H         1.98253105932916    1.98478516383190   10.16491336341976
C         1.78674368191366    1.42725270195818    8.11249925536874
H         2.74761219099395    1.83311381368126    7.82957879130476
C         2.96907627582035    1.67851486283451    5.26898593421336
C         2.95299016626498    3.05688224117042    5.08331808222088
H         2.01928373420397    3.59527017800589    5.02465501110578
C         4.14444616905339    3.75353784769209    4.98165945900919
H         4.12589502763236    4.82272594790761    4.83444359071110
C         5.35614142689608    3.08862508632302    5.07328972408510
H         6.28054184446195    3.63921502195075    4.99238138893976
C         5.37946362406413    1.71802200000702    5.27361555901637
H         6.32226493772303    1.19898711123213    5.35620187036599
C         4.19178368753294    1.01836036027797    5.36670372560574
H         4.19715716968816   -0.05611295521666    5.52091307132011
C         0.15135126670481    1.62542957166404    4.59357047002371
H        -0.79415799011867    1.09940694791590    4.75871704058468
H         0.08003512992691    2.58826840093532    5.10880851595627
C         0.37697241697023    1.82978431781256    3.09768205396439
H        -0.33283894914097    2.58009130173808    2.73830132445138
H         1.38593522654508    2.21586207064252    2.92331183954678
C         0.17343835767518    0.54587294960863    2.29795181057069
H         0.12364267998319    0.76334245267913    1.22670000137712
H        -0.77450761258508    0.07717192075391    2.57935778111164
C         3.00902024123477    0.12382549127722    1.93218363533941
C         4.21522497306646   -0.25832748863190    2.51344305829190
H         4.20410287342139   -1.01615020669391    3.29298939586492
C         5.40506641892882    0.31198998540975    2.10314451184350
H         6.33660912030859    0.00893363630005    2.55611113914986
C         5.39774362706072    1.27557628784937    1.10784758890869
H         6.32305211648710    1.72921209427755    0.78814849624542
C         4.20255271610035    1.65266192169030    0.51662200459504
H         4.19890328631536    2.39650315582690   -0.26566813319207
C         3.01019860110910    1.07894572143535    0.92074864496782
H         2.08873008379416    1.37395652581635    0.44143280770735
C         1.09309422743118   -1.91486062946252    1.27652756244411
C        -0.14985104781850   -2.54101912387594    1.35031792041479
H        -0.83502863459099   -2.27837771952635    2.14697300782098
C        -0.50759913441426   -3.48990780534942    0.41182702900771
H        -1.47509248082723   -3.96573838457262    0.46709496095048
C         0.37801028067443   -3.83035081866705   -0.59911968157198
H         0.09926024754113   -4.57174415297311   -1.33175458482876
C         1.62144026843993   -3.22436807906771   -0.66512895577403
H         2.31347985781480   -3.49475569740108   -1.44817432722609
C         1.98400460507301   -2.27137418509685    0.27124135808169
H         2.95470949027253   -1.79900497114261    0.21814296058770
P         1.51258360538635   -0.69434807232526    2.56014948584115
P         1.47991162435639    0.64512113401656    5.41525159518597
Rh        1.84430237319941   -1.47604516654079    4.67113712694841

