98
CSD_code = QOPKIP | q = 1 | S = 0 | Stoichiometry = C35H60P2Rh(1+) | MND = 6
C        15.02623841183645    0.42751862605028    1.47548883832514
H        15.01505850883660   -0.06364327350429    0.51329932825515
C        15.41414385219441    1.71923224213127    1.75640335151789
H        15.81176234521561    2.44279956658075    1.06053374418919
C        15.72329964767910    1.75338601035015    3.25343540496350
H        16.30916005412489    2.59519606994452    3.61092728131184
C        14.33551774903403    1.57790040804190    3.86186331207424
H        13.95671007094947    2.22320915547205    4.64188824605613
C        13.93957890576468    0.28656062518818    3.57475944987761
H        13.20516520954221   -0.30015124706999    4.10771061130467
C        15.08848752480558   -0.34445475288724    2.78941950078605
H        15.09335280337698   -1.42816391416038    2.71781220016215
C        16.29501697043083    0.33950200728117    3.45528119179027
H        17.23051392980695    0.17477089879332    2.92190818808810
H        16.41557403475824    0.07080190701016    4.50408454601797
C        13.59835588573608    1.68372186233881   -1.42033989205354
H        14.63450344089163    1.54454044761653   -1.08069915039948
C        13.66615130430152    2.30790648805491   -2.81350767548818
H        12.66462902049698    2.43971844455139   -3.22586946049333
H        14.15932333870193    3.27960965419765   -2.77808537296970
C        14.45971989659785    1.38776296963685   -3.74362313945837
H        14.50139609504458    1.83097397398610   -4.73957440116192
H        15.48498379483112    1.29739553055470   -3.37708514079431
C        13.82440961530879    0.00315194668423   -3.81909812570957
H        14.41693094196641   -0.64015519569258   -4.47033304124182
H        12.82461166928747    0.08438992774384   -4.25068880244678
C        13.72677845925723   -0.61367867299914   -2.42725751669235
H        14.73264764062965   -0.76423001256487   -2.02723654485595
H        13.24109442059650   -1.58920896492217   -2.48362391000603
C        12.93392786615300    0.30732461736759   -1.50414173081998
H        12.85739584949378   -0.12867494107263   -0.50207805011933
H        11.92298427424966    0.41226134568498   -1.90303438191166
C        13.76214504451007    4.27142972128932   -0.08035923971053
H        14.76897967718800    3.95734830850471   -0.39233631414297
C        13.29813562080333    5.36436873516079   -1.04250777753001
H        13.13579087215791    4.97770516574301   -2.04827693044726
H        12.36087221955064    5.79606847587215   -0.69159040347733
C        14.35625029710757    6.46835636401434   -1.07996303486419
H        14.04157231410781    7.25141497446395   -1.77130727639253
H        15.29932948714950    6.05905583501672   -1.44969135418042
C        14.56653687238910    7.06286482169359    0.31035029662574
H        15.35157709889652    7.81879074237183    0.27348914012260
H        13.64689172282410    7.55448742315691    0.63513699780954
C        14.93921202576091    5.97712401586537    1.31735664967419
H        15.02879670940273    6.41249321061472    2.31396956106967
H        15.90888178712800    5.54958789935566    1.05154909910973
C        13.87673937426920    4.88149969004849    1.32053681942287
H        12.92128906649031    5.32592262131282    1.60685552824928
H        14.12598476289943    4.10554855488129    2.05985004810932
C        11.13654176969424    2.98777225517511   -0.77419247664539
H        11.29484388727503    3.31449113190069   -1.80425782033751
H        10.66054378153149    2.00303265759573   -0.81016675255861
C        10.21021073538334    3.98364237640074   -0.07731533253334
H        10.50187442957896    5.00133527462118   -0.33592386652026
H         9.19619655926413    3.83683976874686   -0.45890773434524
C        10.20862682076603    3.85536242319971    1.44037787292570
H         9.57976486933820    4.64333258686649    1.85710304281931
H        11.23364157874453    4.02120503498618    1.78957027094145
C         9.72871145213195    2.48280322300886    1.91769315007529
H         9.40984677542648    1.88147049274903    1.06539079918705
H         8.87587945415575    2.56663025941428    2.59317860085145
C        10.44720639550533   -0.20735894240705    2.80896613797592
H        10.78560764720693   -0.62063284351925    3.76884969029595
C        11.12168515699335   -0.99025964858903    1.67827002396810
H        12.21001332672988   -0.83742912401285    1.71293139681163
H        10.75570827964071   -0.61505221535733    0.71866151507727
C        10.80378659794015   -2.47799043171208    1.79308317555161
H        11.27915989802704   -3.02301542449185    0.97579549427278
H        11.20785108124653   -2.86403247997945    2.73170497493872
C         9.29486737528940   -2.70350261306720    1.76015520186765
H         8.90417739330456   -2.40286015163643    0.78550711842294
H         9.07613009680614   -3.76338081119845    1.89325352748299
C         8.60757304798740   -1.89064689756626    2.85320459404168
H         8.93809041157417   -2.24188289222045    3.83320257412984
H         7.52749318292247   -2.03264999069670    2.79642510606066
C         8.93395281264624   -0.40419355223821    2.70362621027221
H         8.40182918055796    0.16538079147554    3.46490662961997
H         8.58107445647331   -0.07074216335130    1.72652960938958
C        10.96303090281560    2.11487267305475    4.54948309732004
H        11.73166766332232    1.52436984107681    5.06752436550132
C        11.35031867008626    3.59320807615476    4.63144087290293
H        10.56734268396194    4.19741619921443    4.17024873639821
H        12.28076447523766    3.76987448240145    4.07878114918051
C        11.50410989903776    4.02266277002848    6.08766934892420
H        12.30242103579783    3.44720862641362    6.56277193714258
H        11.77865517903854    5.07758396131970    6.13555500488648
C        10.19601182488722    3.78859085347085    6.83702022832329
H         9.41426903930676    4.41817885259115    6.40687893835725
H        10.31144067693433    4.06985538871842    7.88417921744979
C         9.78159721499520    2.32399367040431    6.73930358670397
H         8.83191607604284    2.17204638451117    7.25421642242354
H        10.53099136404311    1.70171094401054    7.23402928576410
C         9.64214766705713    1.88429931758762    5.28051283368490
H         8.84156089273339    2.46047230225974    4.81290451165577
H         9.36971670649400    0.82858827989518    5.25810543760121
P        11.07078891403317    1.55254072967989    2.77596727596679
P        12.80784746683911    2.66256249789229   -0.03904835065120
Rh       13.23990470865241    1.59315574545893    1.98563269887559

