84
CSD_code = QOPKIR | q = 0 | S = 0 | Stoichiometry = C39H37BN4O2Pt | MND = 4
Pt        8.57498450044423    4.92491817955099   10.58296865076158
B        13.48044607685329    0.85025708642359   11.07095959833112
O         7.38848996925839    4.27560050494063   12.05005240327254
O         5.44826710966714    4.65424861095458   13.06214122539035
C        10.02465463198244    3.57488691336256   10.86638704013844
C        11.11584640009350    3.68565922292706    9.97368049795423
C        12.20570346882792    2.83394864969240   10.03119704300601
H        13.02101213019949    2.95099381541379    9.33006683155452
C        12.25642994991831    1.81406815052157   10.98626522682678
C        11.17313790678789    1.70694198611654   11.86938442912126
H        11.19880168802489    0.92959840974864   12.62101816023656
C        10.08696535889802    2.56542097149249   11.81918411021714
H         9.27458197320980    2.44874708361634   12.52188679502478
C        11.65058740355681    5.37006694461554    8.00856613084603
H        12.59354431163869    5.14932315066294    7.55665108741681
C        10.95513645240311    4.77872377704622    9.04001412792347
C        11.11633347871556    7.30679890293728    6.51293321511159
H        12.06326845021961    7.82697539355317    6.68568244348449
H        10.30187256412549    8.03651414836875    6.52619076044944
C        11.15260730564578    6.57281552648092    5.19372880023967
C        10.08541146174439    5.76003364762250    4.83115632573062
H         9.23534486320307    5.66733266692668    5.49188853031523
C        10.10987156799739    5.07260682995637    3.63160158849869
H         9.27854385267265    4.44085909950084    3.35840082350770
C        11.19854139841544    5.19464574745916    2.78378538707187
H        11.21752599481269    4.65780449680409    1.84766347085268
C        12.26322787738428    6.00369798185877    3.14034068296033
H        13.11451519451111    6.10045452807429    2.48356580324847
C        12.24293592389853    6.68732943086674    4.34417659281017
H        13.07726222453466    7.31577487837110    4.62112389939606
C         6.29325149789819    4.90489896168649   12.22337452370387
C         6.05039653344402    6.08244318450267   11.26745509396136
C         4.89864153514475    6.85083378891366   11.35853754248297
H         4.17558001332505    6.59869324211569   12.11843428514990
C         4.72583907587090    7.90250628565069   10.47614986797469
H         3.84179500959600    8.52132593217359   10.51904957237469
C         5.71521165057763    8.14551035256097    9.53325178167897
H         5.62224942412088    8.95544999954388    8.82650793104404
C         6.83439026769636    7.33093106890732    9.50876874777954
H         7.63130645677820    7.48378725778773    8.79292628338426
C        14.84657424634767    1.34092956207620   10.46808413308551
C        15.49645356242124    0.61110220941604    9.45714137097755
C        16.66594133163604    1.08643781498486    8.88834879079693
H        17.14750546197516    0.51280555954780    8.10762791195169
C        17.24142491949002    2.28147595911995    9.29952845158254
C        16.61107967460640    2.99425859261039   10.30450937832489
H        17.04401465226180    3.92337300228998   10.65128862494574
C        15.43182204024164    2.54449214461037   10.88426051121039
C        14.83647587648733    3.37794101123087   11.98498637406593
H        15.60386422117110    3.63980973343754   12.71261625074674
H        14.03272837037001    2.85650834667166   12.49412464992250
H        14.43422145763952    4.30579889237812   11.57761597181466
C        18.51979662610308    2.76288678665947    8.68173155074635
H        18.47374137711486    2.69086702336617    7.59615696694671
H        19.35447553463342    2.14851787623194    9.02025729016243
H        18.72161609214143    3.79523044628792    8.95780482512180
C        14.91640524967079   -0.67947567987878    8.95649177153316
H        15.59336807101360   -1.15840401236708    8.25247123822618
H        13.96706597933867   -0.50143165678790    8.45291499550220
H        14.72883222543934   -1.36060966739081    9.78328360920520
C        13.29711566867000   -0.55734929789499   11.73839894873240
C        14.11190104688087   -0.96471295041273   12.80938446947263
C        13.91127790726202   -2.19221646515956   13.41783401382918
H        14.54485480615528   -2.48366396794540   14.24479281798088
C        12.91814371977648   -3.06221761576151   12.98941647350778
C        12.12237759703939   -2.66818053762350   11.92705219798146
H        11.34658156896368   -3.33159158641925   11.56898193972630
C        12.29473491730313   -1.43848597599223   11.30701139427427
C        11.39081041429468   -1.10797238862160   10.15197783390381
H        10.40738207760951   -0.81679874524842   10.52084691184661
H        11.26207647325415   -1.98084525465752    9.51343314689783
H        11.78128000832281   -0.28919408210144    9.55605576282021
C        15.19162489202799   -0.06268861137310   13.33245130376442
H        15.77304257985301   -0.56529109004148   14.10213424857999
H        14.75890623901164    0.83884374284106   13.76356700392334
H        15.85987493609641    0.24150594655088   12.52989368407290
C        12.70960305191855   -4.37975431854888   13.67232013047258
H        12.15885562112999   -5.06654228817043   13.03388421859681
H        12.13861381252756   -4.23730659561727   14.59061087180577
H        13.66299096794736   -4.83198243290756   13.93901419685928
N         9.79539920607459    5.49263592982431    9.17437639851630
N         9.75514475392695    6.45043692103643    8.30565366252594
N        10.86861404373637    6.39507897168710    7.59793096481133
N         6.99737376603708    6.32205193830373   10.35741542707913

