87
CSD_code = QOPKOX | q = 0 | S = 0 | Stoichiometry = C40H39BN4O2Pt | MND = 4
Pt        2.15668362344831    9.20315768661689    0.93577068292208
B         7.50008019119787    5.72121659800304    1.36324364580904
N         2.43147398424091    8.55179686909262   -0.87531208457584
N         1.76802918071473    8.70799167570216   -1.97437749877186
N         2.40506428686128    8.04659644970791   -2.92417770444469
N         0.34984092335135   10.28434431844155    0.71668242863520
O         1.95503257487884    9.83179081989824    2.81891640930354
O         0.62842716182694   10.99328941068803    4.16889866180057
C         3.85263467396647    8.18237968604180    1.22584855027229
C         4.35553665278477    7.53354486360274    0.07396797914651
C         5.49927835357673    6.75358480330722    0.10799407198787
H         5.84637671616520    6.26137717946629   -0.79100386098650
C         6.21812328389747    6.60608665404790    1.29716115183426
C         5.72945439169197    7.26748632889104    2.43139427540410
H         6.27496303932704    7.16514990457001    3.36003257274959
C         4.57005350382071    8.02523089322017    2.40523354591133
H         4.21949726946204    8.50629127054471    3.30694825744571
C         3.51713628084319    7.45240705347792   -2.43325275462923
H         4.17676480544775    6.87226125462255   -3.04183093683445
C         3.53628116788730    7.77449767803374   -1.09386696340156
C         1.95755451245946    8.10095359661391   -4.29030819998503
H         0.88294691778575    8.30404252786277   -4.26721379888802
H         2.13238355658951    7.13143147337815   -4.76244031615847
C         2.67719850872976    9.19823341340698   -5.04158326238435
C         2.63940278054783   10.49821667413874   -4.55240832802407
H         2.09387358999768   10.70931634640283   -3.64381934061171
C         3.30112754707261   11.51228515170706   -5.21993988474784
H         3.26977239398760   12.51942727593266   -4.83286353202822
C         4.00135534374696   11.23585333565282   -6.38279830973234
H         4.51615327528149   12.02794869935249   -6.90505369956968
C         4.04144026476344    9.94229772905655   -6.87310596195353
H         4.58745000750064    9.72218684196851   -7.77803178144080
C         3.38551193422842    8.92425058902258   -6.20172338498600
H         3.42093906617345    7.91485860230823   -6.58602689780841
C         0.92296292041016   10.53354418434935    3.08116496628013
C        -0.01282115712876   10.79984697232464    1.89366916594118
C        -1.17136761583604   11.54262598192026    2.05348235056181
H        -1.39594382073081   11.92508803880960    3.03756162456539
C        -1.99789525586711   11.77029480614975    0.96175662161430
C        -1.60165734634912   11.22478330579553   -0.25934695551790
H        -2.20548657031001   11.36967084869575   -1.14255983498633
C        -0.43170824527300   10.49452508742615   -0.33771832366800
H        -0.10084540390369   10.05623710012228   -1.27001529421065
C        -3.25861399674598   12.56203565728713    1.07677182425049
H        -4.11333769171465   11.95153729781918    0.78759169934406
H        -3.22516407658182   13.42210557262789    0.40899893434602
H        -3.40492043582980   12.91208711355602    2.09471918677003
C         7.60144959858765    4.50279269566277    0.37607093276767
C         6.58422518787561    3.53760238313938    0.32552312634197
C         6.66352835070233    2.47753261520287   -0.56579772346760
H         5.87286798746614    1.73902363747269   -0.57704748318064
C         7.73235961565583    2.34089583871490   -1.43686146341838
C         8.73606976025921    3.29782579516089   -1.39284696267201
H         9.58022769159267    3.20666400929092   -2.06340141850128
C         8.68694150491369    4.35956408238618   -0.50374418394225
C         5.39311915617188    3.60661347404177    1.24002832192949
H         5.02809376861022    2.60557540448822    1.46414033766275
H         4.58498703250688    4.16061757841968    0.76098406728532
H         5.63282421321014    4.11226188621651    2.17063693912892
C         9.79680865788264    5.37006472195309   -0.51414649508217
H        10.59819680176072    5.05590678319032   -1.17914711172543
H        10.20166296946098    5.50480366058720    0.48619873092299
H         9.42884911449066    6.33745131471431   -0.85439767026637
C         7.80055431561102    1.20268086093260   -2.41021622036650
H         7.17933054283036    0.37261760587757   -2.08176148419289
H         8.82469630458098    0.85318239167029   -2.52460110540711
H         7.44581251065430    1.52503212999831   -3.39029294465469
C         8.61898092667733    6.08867245914013    2.39918868783371
C         9.15055166565325    7.38738587533216    2.44481223887662
C        10.12376574925712    7.71730675288279    3.37590110768056
H        10.52423031357218    8.72218073376275    3.38478939628774
C        10.59348450104515    6.79167069718559    4.29382140182027
C        10.06685811020574    5.50895817680531    4.25346022336524
H        10.42170485322049    4.77165542215267    4.96108207844551
C         9.10286012668264    5.14927833114277    3.32544371274575
C         8.55848266290768    3.75067362883301    3.35237250152849
H         9.13141111194897    3.12815790489692    4.03605678359058
H         8.58869600373344    3.30519181391425    2.36077774868338
H         7.52049107320835    3.75396283565758    3.68372730085653
C         8.70367333216857    8.45435453182581    1.48481753870938
H         9.51864333507976    9.14702081559160    1.28208382515428
H         7.87965263414319    9.02192921528495    1.91710658324787
H         8.35807205773771    8.03098742925592    0.54646149619921
C        11.62627934051372    7.16581247508717    5.31309946203480
H        12.29609994566625    6.33122486599913    5.51052310075374
H        11.14170003086294    7.43617287019818    6.25215633271130
H        12.21251407246045    8.01852867439899    4.97816859378957

