103
CSD_code = QOPKOV | q = 1 | S = 0 | Stoichiometry = C36H64P2Rh(1+) | MND = 6
C         8.72564026913061    1.64691340683125   11.74145533204465
H         9.19415101455432    0.86198120251397   11.15278363322819
C         7.62266174556708    2.34163516610639   10.98722548052175
H         7.11019691855672    1.60514476224781   10.36467550558252
H         8.06896004360226    3.07615835460384   10.30910011179793
C         6.60322158380232    3.02485184457983   11.91130933548015
H         5.62716869137889    3.02044354247544   11.42356793850576
H         6.87541297820203    4.06744648901414   12.07840994319496
C         6.48106561134191    2.33609111494057   13.24817091441054
H         5.53898540943607    1.81208129539241   13.39245825766954
C         7.19377676401598    2.69907744260768   14.36983153390424
H         6.72851859542491    2.53193460703524   15.33520128378577
C         8.26911217642717    3.75272249548025   14.40564375771459
H         8.80331119340601    3.66913935115882   15.35460822236659
H         7.79722986775830    4.74050761941628   14.39153112453191
C         9.27236928783417    3.63053203431958   13.24671092941406
H         8.95628723297881    4.24208566076990   12.40111069164971
H        10.23872704294906    4.01295658973090   13.57859609773611
C         9.44818082131545    2.20577246800444   12.77867822555929
H        10.42140103985117    1.77970126350300   13.01291053237749
C         5.06497601319127   -0.26614622382890   15.60097937760091
H         4.81803776354170   -0.97010142830162   16.40585792427815
C         4.38101407362949    1.05577547742809   15.95257412898875
H         4.75357989471800    1.43861281198794   16.90396380807650
H         4.56130454801635    1.81013255767429   15.18696532142540
C         2.87121862933560    0.84208184972163   16.07166697653488
H         2.66448398506429    0.13643009146587   16.87924998028560
H         2.39161928302422    1.78849728619135   16.32607837420653
C         2.29881182955732    0.29997037075284   14.76698171428218
H         2.45853198730865    1.02709150173337   13.96733303258535
H         1.22390104924052    0.14773455281063   14.86805467800723
C         2.97742657432150   -1.01640785895206   14.40619608657124
H         2.75579857815253   -1.75922892092276   15.17561364279898
H         2.58790259289686   -1.39247323283081   13.45871314093985
C         4.48951057045191   -0.83277739653320   14.30067350512292
H         4.71498724500198   -0.16126038619566   13.46919549667447
H         4.94995352358090   -1.79804562961486   14.08034467472232
C         7.41179682461890    0.62840837844843   17.09241501195313
H         6.89138501023399    1.59198236631805   17.03522601065932
C         6.97332940517093   -0.02442010426920   18.40186352879719
H         5.90634575996441   -0.25384552820033   18.38427562735328
H         7.51786420805587   -0.95235619577906   18.57447674571859
C         7.26448579989075    0.93848707575787   19.55467016161958
H         6.97286194762137    0.47506712010292   20.49829771396645
H         6.66684844710958    1.84506512785260   19.43232715338044
C         8.74480584330868    1.30940247008893   19.59803228809946
H         9.33678087303860    0.41463696081669   19.80281935918664
H         8.92203391198744    2.01698450978221   20.40866546580354
C         9.19354040397145    1.91790990380887   18.27127365615700
H         8.65706950949247    2.85449702364996   18.10031013610298
H        10.26021650964798    2.14519967854544   18.30977528635147
C         8.90794282913036    0.94119100975051   17.13385961253975
H         9.22616570071029    1.35916940928438   16.16742474844945
H         9.47790618564340    0.02945943924089   17.31414397332401
C         7.13574917725675   -2.05656133238509   15.94741126951544
H         6.41220074554964   -2.26629293078047   16.73944386419101
H         6.80593218539595   -2.60457704640321   15.06071469880383
C         8.49294408718209   -2.58752836977982   16.40141994052743
H         8.42430251548300   -3.67788876668789   16.45610470844408
H         8.71389922143332   -2.23234537848541   17.40835355230236
C         9.64733445425104   -2.19996437083600   15.48930757550111
H        10.56116868055053   -2.65422875022197   15.87507710841913
H         9.76869574730078   -1.11308239598902   15.53205757868592
C         9.40762461076621   -2.61583098064693   14.03779157975925
H         8.50599975590774   -3.22217221477784   13.96222624657504
H        10.23082665470884   -3.21737735216635   13.65008505980729
C         8.35289147233769   -1.80977997796674   11.43848544382796
H         8.77860028088988   -1.26853616987118   10.58308814965031
C         6.86437327643710   -1.46315872986257   11.53724393832980
H         6.41739630147399   -2.05592556497847   12.33879177526827
H         6.73789676386181   -0.40023311134001   11.79490917714778
C         6.15399217965083   -1.77852616934670   10.22517383783606
H         5.09350777068460   -1.53377179782299   10.30726884822881
H         6.57804704658870   -1.16799940760801    9.42440343443050
C         6.32060591142736   -3.25545495738609    9.87788922373025
H         5.85652859782451   -3.46429007487931    8.91350866040406
H         5.81271247589385   -3.86358731852208   10.62982690990457
C         7.79814968256649   -3.63459058944710    9.83498805107645
H         8.29248146676495   -3.08947510961860    9.02776882835441
H         7.89987277142417   -4.70046627924128    9.62623648876750
C         8.47907903245937   -3.30955837332878   11.16560963629601
H         9.52023744696837   -3.62705425566224   11.12953316961031
H         7.98179231951779   -3.87781460327938   11.95320048431224
C        10.98993783949679   -0.84910771679615   12.41969312984623
H        10.97935336946767    0.05884583322934   11.80558753008010
C        11.86324919207493   -0.57591138667205   13.64715685224513
H        11.39890914664649    0.18384509397118   14.28432330313311
H        11.96513127027105   -1.48814011993475   14.23595430693144
C        13.25445542456218   -0.12020641041345   13.21400973481161
H        13.86898222533710    0.07416761278536   14.09435274711823
H        13.18020057399560    0.81032192384765   12.64589137135468
C        13.90624940662054   -1.19375805209678   12.34858296798199
H        14.88976290964427   -0.85910535217876   12.01738151223105
H        14.04467206383413   -2.10158648526453   12.93964882448309
C        13.03186073513581   -1.50251850380269   11.13788589628517
H        13.49023541878895   -2.29174761531929   10.54014503345883
H        12.95561683734501   -0.61182161207057   10.50971502648740
C        11.62999444672875   -1.94267498704534   11.56515309503631
H        11.71153305079031   -2.87514343889847   12.12653920931344
H        11.03566155962770   -2.12717231907606   10.66951038428419
P         9.21457816877071   -1.13225030772685   12.95581500378987
P         6.94822380353586   -0.25496562252634   15.51062530594851
Rh        8.01473432659891    0.76740106679038   13.64223233143095

