85
CSD_code = QOPKAJ | q = 0 | S = 0 | Stoichiometry = C38H40BN3O2Pt | MND = 4
Pt        0.26536091877453    1.93415265350190    7.54140993529632
O        -0.77855656949296    3.19632458051320    6.39579430770352
O        -1.46273225538411    1.69482321769408    8.77636506591646
N         1.43810628109127    0.78540918812463    8.56750296816732
N         1.25031358353318    0.05901233379644    9.61431929836314
N         2.40439032988976   -0.50141595679352    9.92637114501084
B         3.47471808880392    3.97361295674729    3.43718989356542
C         1.92934909538763    2.13839627753247    6.45792201922720
C         2.09658108866689    2.88987452852684    5.30951840853982
H         1.23691682211279    3.37798075387265    4.87383905604880
C         3.34556994219521    3.05253913913523    4.69241826895521
C         4.44582609471315    2.39194069474583    5.25729085543225
H         5.41781388750721    2.50778315521636    4.79815357237445
C         4.31467155944849    1.60748362471052    6.38543359489451
H         5.17184610049826    1.09972039948546    6.80650145512646
C         3.06520061289314    1.48623719590239    6.98528853303159
C         2.74976348816787    0.71902103194862    8.16852251444061
C         3.37579237971654   -0.11893676885372    9.06437479707739
H         4.38651780434814   -0.45574111389303    9.15016980746408
C         2.53685994286798   -1.31413999384006   11.10582565949892
H         1.52761384977452   -1.63491920027042   11.37857669490578
H         3.14710275720022   -2.19109023010327   10.87449796024438
C         3.15381519605164   -0.51540834813275   12.23034667108166
C         4.30966043484595   -0.94466654403268   12.86468951870756
H         4.77613890369572   -1.87251237425255   12.56511123014768
C         4.86374751809646   -0.19139126788984   13.88605195183246
H         5.76175799443008   -0.53376524920980   14.37818937506540
C         4.27114100269184    0.99867034615501   14.27044582066456
H         4.70636735675162    1.58712981237712   15.06406995837970
C         3.11962012655858    1.43396854228417   13.63490453208699
H         2.65536713041408    2.36227681445283   13.93155850831395
C         2.56078033260718    0.67955616076171   12.61980748954660
H         1.66228901222676    1.01374664359959   12.12128375043448
C        -3.68550105099447    1.94335672688520    9.55095693621457
H        -3.33077956410752    1.24327444951998   10.30324486331639
H        -4.52734647294211    1.50546505919709    9.01778449655888
H        -4.02603159928221    2.85589819062439   10.03652948342717
C        -2.56460695676719    2.25831456423087    8.57879672451365
C        -2.86583171783175    3.16065720281056    7.54832075935968
H        -3.86340322019860    3.57255593256269    7.52475461185258
C        -1.97983229446667    3.56934626413571    6.55641420762366
C        -2.48632014224982    4.56737583393768    5.53419092785544
H        -1.66071070771468    4.89511664781975    4.90678006307788
H        -2.93220518109301    5.42623865080568    6.02992910205753
H        -3.24553300081017    4.10071557572911    4.90929610393231
C         2.31917336187704    5.01004552222079    3.19369611536199
C         1.59317473513957    5.00756512748969    1.98942248050961
C         0.49277319641869    5.83275420938011    1.83026776018665
H        -0.06013679490740    5.80688766077554    0.90066279222480
C         0.07653782333627    6.69283142907216    2.83779670966588
C         0.80694334502143    6.71829983204150    4.01306576558088
H         0.51235238137486    7.38850735855435    4.80967930495107
C         1.90911129773108    5.89532438727995    4.20136182025298
C         2.64092032812776    6.00558800108909    5.50933368595585
H         2.77199607234852    7.05291013490030    5.77945457774600
H         3.61435983548150    5.52741273106710    5.46662671106618
H         2.06161742284832    5.52434082572676    6.29747698470735
C         1.97277408428778    4.08144757001372    0.87087428836915
H         1.37690271472187    4.28562408187541   -0.01611432259339
H         1.80870849722920    3.04589265052241    1.16457232409622
H         3.02531373898006    4.19275515529587    0.62060308429320
C        -1.13030286583134    7.56136154807862    2.64468046677766
H        -1.01660182159663    8.18044142063724    1.75540443762393
H        -1.28468704625849    8.21019016112404    3.50355042621258
H        -2.02081195981754    6.94727977139832    2.50989471563461
C         4.72009940211087    3.81719855838535    2.49565838018682
C         5.57984351239580    4.90374965372152    2.25596229770501
C         6.71412129233842    4.74535927678471    1.47771852659838
H         7.36638672006217    5.59270184360225    1.31323504719485
C         7.03489214809161    3.52409232916473    0.90083091964851
C         6.18161225001218    2.45684586033465    1.12221875233851
H         6.40309522463463    1.49647522056539    0.67561201585402
C         5.04322403356860    2.58691476380428    1.90656253372213
C         4.16007081679634    1.37919464153822    2.05192181485820
H         4.72292085662924    0.55158566212803    2.48288160575912
H         3.80330558639685    1.06099478530385    1.07200732707885
H         3.30325153044459    1.58180929064427    2.68641183881738
C         8.25419621289459    3.37895063277202    0.04088727710140
H         8.57328577105912    2.34025423280537   -0.00889711569074
H         9.07366088481029    3.98259248182655    0.42611908434536
H         8.03807966522148    3.71624760796389   -0.97381560393051
C         5.30077814711961    6.24423890165293    2.87070429791701
H         5.96719636818036    7.00128448661806    2.46316687895088
H         5.44759682448665    6.20486240917867    3.94965967857509
H         4.27145550360632    6.54349968057121    2.68760141702235

