84
CSD_code = QOPKEN | q = 0 | S = 0 | Stoichiometry = C39H37BN4O2Pt | MND = 4
Pt        7.78166877078457    5.59833905780341   11.15552988097207
B         9.13693343589990    3.40560233160855   16.15284677713910
N         8.99689933911935    4.73493040510003    9.91018234195886
N         9.16701108178656    4.84786648253208    8.63334173160670
N        10.13722665943351    4.02170316127537    8.28340966403253
N         6.68971634607082    6.88038429120679    9.85940339106816
O         6.57481697750850    6.43807511269918   12.50622898959131
O         4.93430523936691    7.91586593970607   12.74791679574886
C         8.76295787970003    4.41536626137977   12.43955601542559
C         8.58301545582148    4.32337287113047   13.80874284336152
H         7.81960651121865    4.92510148274554   14.28167205317778
C         9.36346180295881    3.47239003556575   14.60623667483265
C        10.34052694571728    2.69009994664945   13.97804314456683
H        10.94773582369669    2.02846394710515   14.58033402315500
C        10.55208690699041    2.75529466598466   12.61580696037914
H        11.31409107817592    2.14966174875963   12.14423249043812
C         9.76855750766268    3.61432428313379   11.85357291029892
C         9.86750322074184    3.81228113884234   10.42591937444905
C        10.60423423925779    3.34636749473433    9.35847062550593
H        11.38735781900273    2.62270828817448    9.28721636463301
C        10.50480017088638    3.85500672975763    6.90279409388003
H        11.58094376998151    3.67803379345345    6.83896723309059
H        10.26139487945501    4.79053437995987    6.39056329555251
C         9.73797475503237    2.70941972895955    6.28125433202669
C        10.39946960837839    1.66545255457774    5.65236681523047
H        11.47867316009992    1.66736166992657    5.59551279608820
C         9.68022994132957    0.62391145813093    5.09105694255636
H        10.20171701485881   -0.18346515161408    4.59945415487489
C         8.29822730124837    0.61564466241409    5.16448496479957
H         7.73896161503690   -0.19848086789016    4.72909859797627
C         7.63407399145340    1.65313112966480    5.79801006705913
H         6.55637808022982    1.64976126761081    5.85921984142963
C         8.35047285150264    2.69782889240869    6.35249684051127
H         7.83583796783171    3.50811888255048    6.84877640531941
C         5.74039564309687    7.29998243343000   12.07572231931500
C         5.78312055552771    7.56273536483984   10.56233600497224
C         4.91474414478451    8.46841308689122    9.96953316702553
H         4.20802733776278    8.98503626678893   10.59997537171167
C         4.99011008380331    8.66994112487190    8.60280098089095
H         4.32903739445724    9.36647164241070    8.10862694679868
C         5.93587525038199    7.95662891541301    7.87896364932088
H         6.03008676219653    8.08299978080388    6.81155623762574
C         6.76580186558976    7.07297093090775    8.54734339914316
H         7.51956251888013    6.49828340722805    8.02535854139748
C         8.56320676645151    4.66929797352626   16.87750489471020
C         9.12010716560183    5.94158970131380   16.66879668032684
C         8.55549339065201    7.06283784496958   17.25632119230309
H         9.00438343359621    8.03111332859976   17.08068965145612
C         7.42565019765082    6.97342898500047   18.05359407414020
C         6.88222644089551    5.71676814206252   18.27406098238595
H         6.00462036241190    5.62499424456652   18.89982114730195
C         7.43372830374709    4.57774438224025   17.71057467762798
C         6.77836582013530    3.25338202482276   17.97605709206744
H         5.97572448923009    3.36256024302797   18.70206515400191
H         7.50022417509042    2.53458497319687   18.35725462003225
H         6.35624719709455    2.84614134570585   17.05884866783416
C        10.34985492327502    6.13989506477633   15.82721952786347
H        10.97889350151151    6.91816230353868   16.25699605979291
H        10.06172293844266    6.45555775279792   14.82455322620088
H        10.93033752775864    5.22644289126635   15.73902509150994
C         6.79751749890848    8.20045053823754   18.63959086285752
H         7.55063898021172    8.95056653104108   18.87238329137704
H         6.24272031383648    7.96127268191367   19.54434648539074
H         6.10205371740695    8.63402951903146   17.92006444171481
C         9.50395541294058    2.06954969577955   16.89107124364062
C         8.95080301802104    0.84594807696605   16.49187079394254
C         9.31691625284009   -0.33396868801411   17.12568985592140
H         8.86707148603269   -1.26391718581540   16.80379906013918
C        10.24027801467305   -0.34431288632079   18.15669908850592
C        10.79248538311141    0.86731583642691   18.55187364441495
H        11.51449971278770    0.87742894733715   19.35755564878734
C        10.43554495223062    2.05860796753390   17.94380030300147
C        11.07801751843995    3.33577510668823   18.40117784842344
H        11.68972214289698    3.16523441213563   19.28433081591223
H        10.32202565906771    4.08234268281456   18.63378683159939
H        11.71418958589085    3.74425432817388   17.61668221114359
C         7.93330418488192    0.76580405372047   15.38817793442718
H         7.13100551757124    0.08244211467142   15.66316102275898
H         8.39954617609548    0.38418520604403   14.47920273876640
H         7.50724309436020    1.73858313154402   15.16372849783172
C        10.63812194313906   -1.61747169311813   18.84112568846024
H        10.11705177475372   -2.46989522484056   18.41194204840117
H        10.40385124987488   -1.56605707425038   19.90408884357135
H        11.71122007131460   -1.78139030963858   18.74563200819454

