64
CSD_code = QOPMIT | q = 0 | S = 0 | Stoichiometry = C32H22IrN5O4 | MND = 6
Ir        0.19139559674999    7.59809762062158   11.27925763595094
N         1.04086779473925    7.33485834436272    9.47056215251174
N         1.13677408925023    9.49495981448469    6.52702181578307
N        -0.57548257932303    7.87262358364756   13.14105280634949
N         1.11564196265631    8.66407005458683   16.28301583183436
N        -1.58616347692090    6.61020360328829   10.50991156297757
O         0.29245554288130   11.57243030859196    6.20692978348839
O         3.25925557642084    9.27524996500237   16.68455557367121
O         0.49893961383262    5.52835847872073   11.86870514971861
O        -0.46058703555106    3.52309464814687   11.83580851685305
C         1.68706703577810    6.25775834635497    9.03767968499063
H         1.80718704529389    5.44579613865119    9.74010177001077
C         2.18900656048158    6.18177800935396    7.74740890442937
H         2.70783497635095    5.29071551370707    7.43227244088108
C         2.02837934242341    7.23859836577831    6.86607105300099
H         2.42204119365337    7.16509052945291    5.86602623655960
C         1.35802309124723    8.38384682795816    7.30674601083038
C         0.46585869049108   10.63858523914586    6.96672322668600
C         0.00410686519860   10.63381388605491    8.35783235633310
C        -0.65077428632564   11.73474263824383    8.90636237018682
H        -0.82242730982157   12.60439303532309    8.29150788909630
C        -1.05957215415216   11.68601358332735   10.22528405651644
H        -1.56453612325249   12.53980568451867   10.65419071990996
C        -0.83423349132767   10.56147111790904   11.01809040723649
H        -1.17113079396647   10.57777946539285   12.04572529308445
C        -0.19060448401999    9.43680146668773   10.51738960376519
C         0.21632331225532    9.51587774171434    9.16825935746639
C         0.88791408401915    8.37602980537357    8.63080515312331
C         1.85949085484374    8.32923298291401   12.16181931891035
C         3.13799077018496    8.59372339832490   11.69205906334171
H         3.35920888148889    8.50821585756436   10.63687376575878
C         4.16405068520404    8.97233536863223   12.55613511698048
H         5.14717191879199    9.16842978795627   12.15251404723085
C         3.95315554696696    9.09537609366650   13.91546923707327
H         4.74669354335419    9.37960287864551   14.58893876009687
C         2.68461280528701    8.84168853163339   14.43199653293517
C         2.41824899212790    8.95146554385297   15.86802372520496
C         0.09759698103956    8.30701570910047   15.43279185398612
C        -1.20482287457577    8.03227929981797   15.85821458104151
H        -1.48199012583715    8.07682989704034   16.89802562641573
C        -2.15412279472858    7.69480585280637   14.90855111999868
H        -3.16738817175018    7.48038778104943   15.20891105251351
C        -1.81047641066753    7.62654476794738   13.56846216501589
H        -2.55296576655022    7.37072390104246   12.82622922683209
C         0.35670395372461    8.20700693075735   14.05281048345089
C         1.66693354009906    8.46945851495430   13.54929472552140
C         1.62230447218193    9.50302433810418    5.16183824691294
H         2.70798331901918    9.40002669204796    5.13958904158782
H         1.34345987626190   10.46259895001089    4.72800961195737
H         1.16240403521039    8.70015975353273    4.58399469515027
C         0.84662430649292    8.75435581285263   17.70387730863711
H         1.77854654937682    9.04457783278374   18.18766344204765
H         0.52305997600615    7.78971454312449   18.09668686379462
H         0.08694004269674    9.51096583235329   17.90518901830861
C        -0.41625964837573    4.71455422705701   11.57514169963929
C        -2.59231464507333    7.13617382533973    9.81809184710006
H        -2.53643828125125    8.20002061159400    9.62758361568628
C        -3.65990978919187    6.38317182489083    9.36461251500054
H        -4.45350385359031    6.85494378041056    8.80665971903614
C        -3.68607255500660    5.02245049988757    9.64234565399492
H        -4.50616110449157    4.40692785617932    9.30316259399177
C        -2.63926556970938    4.47771957026928   10.36169562752254
H        -2.58484277162451    3.43114841683471   10.61891860953163
C        -1.60390732699999    5.30459871861541   10.77862212455344

