149
CSD_code = QOPNIU | q = 0 | S = 0 | Stoichiometry = C66H76N4Si2Zn | MND = 4
Zn        6.15191637292775   11.46427893673082    0.00053273569142
Si        7.91041955087388    4.37755213574724    3.13118688077859
N         7.75859236948881   10.19771088043028   -0.05011075940491
N         5.23322518743813   10.14243911419035    1.26623699453436
C         9.15442755959422   11.52878767267860   -1.56399991824531
C         8.90249124325826   10.43492698136293   -0.75931866206432
C         9.81599656222895    9.35845031751930   -0.55183204885064
C         9.21144203884769    8.46673777682468    0.28442800104838
C         7.91629282840002    9.00390738718941    0.59230246239092
C         6.95756678219591    8.40566062557594    1.42145996271631
C         5.71073467279285    8.95740664271227    1.74642036521629
C         4.73761365363577    8.37511230820876    2.62710323698291
C         3.67556816814741    9.23045973388538    2.65551564469369
C         3.99021117537078   10.32987250529506    1.80201648434108
C        11.20051446889072    9.00403902756210   -0.96710727446125
C        11.13608943813792    7.59340193666020   -1.49677136472280
C        10.55851977629180    6.72366944476468   -0.68270462939497
C        10.07400727054724    7.29604726859431    0.62585810805337
C        12.00571020290576    8.91519530284705    0.36081820137323
C        11.33447709919723    7.90612897204157    1.30420331979771
C         4.56681046269250    7.19040329331686    3.52145922921639
C         3.23626494333997    6.57409974068447    3.16865052788902
C         2.20837936044029    7.40828945953685    3.18374881317409
C         2.55654348849224    8.82893662677708    3.55057925826579
C         4.38399757709894    7.78588107167179    4.94770572079285
C         3.18826459066118    8.74930472381840    4.96964414244823
C         7.26704718213155    7.13964938880666    1.96167464312726
C         7.52663440117495    6.03919310641473    2.40003137152998
C         9.29502523855622    3.59984181976131    2.04479930753113
C         8.81683596235879    3.28944230987264    0.62953858958660
C         9.92900640028984    2.35845477421078    2.66950442925808
C         8.59586692043112    4.70979639182326    4.89599144997245
C         9.86344814554739    5.55807317736842    4.82943407542210
C         7.56251422500628    5.40762451845441    5.77557384409828
C         6.23182600338468    3.44125429648931    3.21946287763486
C         5.43936810851124    3.54817742138149    1.91899666515738
C         6.38250424185471    1.97660682385237    3.62334095759133
H        10.11301184628402   11.54903647593772   -2.06375385768716
H        11.65899352631935    9.70680329584618   -1.66245706077592
H        11.55982272572649    7.35336446726778   -2.45714645466112
H        10.44527132772461    5.67271660236379   -0.88561274146966
H         9.60398379028710    6.55730266095081    1.26690102016290
H        13.02724006769891    8.60987930750648    0.13137431727879
H        12.04113366922204    9.90594666209178    0.81504233252442
H        11.03040560975212    8.38709531146811    2.23421005203154
H        12.02055571927324    7.09567019031927    1.55220608749552
H         5.38574677083100    6.47820929354505    3.49798815565506
H         3.17034376496124    5.52188900709105    2.95239636700168
H         1.18710002965521    7.13360955857842    2.98129280129208
H         1.69991665003651    9.50237240879844    3.53497111035269
H         4.23085009625149    6.96492106053156    5.64867977031720
H         5.30192591596970    8.30275316698515    5.22896208546207
H         3.50214528785542    9.74961682794911    5.26962492400969
H         2.42817874804245    8.40654162577227    5.67260723583715
H        10.08427216092250    4.35514506570198    1.95838972873262
H         8.34227793429277    4.15981675687240    0.18214917473167
H         8.09919621986080    2.47247588656757    0.63760440282591
H         9.65381594376596    2.98876276248683   -0.00067126896136
H         9.20557110575017    1.55180537435181    2.75738340796218
H        10.32087853277651    2.57531068551601    3.66049599756645
H        10.75301991749667    2.00257489762527    2.05096848606205
H         8.85276887223446    3.76003541429823    5.37657186487571
H         9.65266971212943    6.51110084792457    4.34906471035871
H        10.64396884762032    5.05660038801071    4.26309155284237
H        10.24564151121264    5.75734256080303    5.83013850853921
H         7.27202184462137    6.35800862494088    5.33382329730727
H         7.97186861372454    5.60352677316464    6.76613276889061
H         6.67089817023770    4.79727895133232    5.89477691340811
H         5.63637238528728    3.93363309490018    3.99643824836056
H         4.44967719368540    3.10765171634467    2.03927000542265
H         5.94291073329428    3.02142185690502    1.11320562115421
H         5.32239168299188    4.58710762056387    1.62076988797857
H         6.95092128584971    1.87939092403458    4.54595870519301
H         6.89037632839129    1.41413868741782    2.84293602687978
H         5.40470251359054    1.52035303322686    3.77772200707163
Si        4.39081713170294   18.54922593908117   -3.13274586279858
N         4.54535555105510   12.73099004184185    0.05139887224508
N         7.07052055344761   12.78598275433188   -1.26535257697960
C         3.14982699134008   11.40024226303390    1.56586785006801
C         3.40179542827023   12.49415590226437    0.76127402060901
C         2.48849255968352   13.57088793069983    0.55426420510332
C         3.09273254262260   14.46226927676532   -0.28257816391569
C         4.38754884473729   13.92469264908479   -0.59118021554236
C         5.34591588680023   14.52247139071611   -1.42109409586952
C         6.59270143516415   13.97065906671851   -1.74611067682781
C         7.56568908587292   14.55279626115062   -2.62703439819737
C         8.62807589072852   13.69785106546037   -2.65482328269831
C         8.31369382830220   12.59873586293281   -1.80083880170799
C         1.10440731633767   13.92581458927477    0.97053445832428
C         1.16970215506914   15.33650180511183    1.49995780326075
C         1.74695138411479   16.20591645999775    0.68532479046885
C         2.23027412007065   15.63318589115005   -0.62352484340999
C         0.29822430679216   14.01477881304545   -0.35678180130153
C         0.96910735044775   15.02343260567255   -1.30085433066106
C         7.73615224630767   15.73711697695737   -3.52196043685592
C         9.06637856510185   16.35415345997194   -3.16921634013240
C        10.09460662392601   15.52037424156511   -3.18367387453232
C         9.74711189397464   14.09939472312801   -3.54986612579040
C         7.91952496456362   15.14101603527421   -4.94787281348459
C         9.11566310909421   14.17807541478167   -4.96910441201107
C         5.03606746198256   15.78812153241014   -1.96193758553443
C         4.77579013552319   16.88828187611847   -2.40064353209640
C         3.00863450796677   19.32828003580039   -2.04423015134858
C         3.48952747921658   19.63906605272081   -0.62996804473210
C         2.37421275380119   20.56973060069459   -2.66835252807645
C         3.70171284009364   18.21525019104999   -4.89578784332986
C         2.43362887871420   17.36799942887695   -4.82579324348526
C         4.73297935444690   17.51558172456887   -5.77636862528118
C         6.06951753954537   19.48488419528285   -3.22554541652028
C         6.86394630125480   19.38056541734254   -1.92607280836732
C         5.91868007468128   20.94868727118966   -3.63238343062039
H         2.19144488559102   11.38022952529303    2.06601498026345
H         0.64623082176605   13.22329776111538    1.66634119579140
H         0.74679299083268   15.57681416360838    2.46062611847082
H         1.86074943405765   17.25685579334695    0.88800018467338
H         2.70003707664364   16.37168708171557   -1.26501881001149
H        -0.72300017867550   14.32053650554386   -0.12658586762889
H         0.26205768678828   13.02397766045651   -0.81082482428544
H         1.27234205952780   14.54218232995556   -2.23099198001853
H         0.28312900103054   15.83408323874762   -1.54852465364880
H         6.91687528022031   16.44894343074016   -3.49902386136166
H         9.13184140777396   17.40649688189457   -2.95349624376137
H        11.11572863104351   15.79558206150285   -2.98113508906403
H        10.60401872848488   13.42632963615805   -3.53374992287247
H         8.07250070678314   15.96170650647624   -5.64919731616285
H         7.00186542491710   14.62365476106068   -5.22908638789407
H         8.80226398168602   13.17748939815140   -5.26867924625031
H         9.87575812532871   14.52082320205723   -5.67207069507601
H         2.21911463231251   18.57346945204182   -1.95604341946426
H         3.96460648449730   18.76870912472905   -0.18310065970711
H         4.20743352198272   20.45577619488867   -0.63968429729092
H         2.65381987651464   19.94029839167378    0.00166554906155
H         3.09789498875396   21.37599304220313   -2.75774782550394
H         1.98056787910648   20.35269980772434   -3.65860431716445
H         1.55142499941558   20.92625028199641   -2.04855580434510
H         3.44460357321081   19.16459929620184   -5.37707530738705
H         2.64456629338804   16.41542914420597   -4.34458678123791
H         1.65451631196447   17.87079462291672   -4.25867875987202
H         2.04945142695890   17.16773336804997   -5.82553676648712
H         5.02387788062567   16.56569701607868   -5.33379142379202
H         4.32156306027796   17.31844237215497   -6.76582336121011
H         5.62467235184450   18.12529531299672   -5.89822513689496
H         6.66361025215501   18.99063119540410   -4.00237495188572
H         7.85377078467111   19.82008356079940   -2.04894414160567
H         6.36204786061777   19.90966315721844   -1.12079118191427
H         6.98061073282445   18.34228357299817   -1.62548718755486
H         5.34884544288560   21.04407349823745   -4.55431364742898
H         5.41220853363482   21.51301599581017   -2.85241450260756
H         6.89638922702619   21.40427814685726   -3.78928923035211

