66
CSD_code = QOPSIZ | q = 1 | S = 0 | Stoichiometry = C30H27ClN4OPRuS(1+) | MND = 6
Ru       11.09866531420804   10.93997389367385   13.64420458786825
Cl       11.47709356735712   10.30985408437827   15.90184256335462
S        10.57079962264634    8.64282224525721   13.03942041846494
P        10.66837643722165   11.49731739597854   11.41726419953553
N         9.23579427394503   11.05076961836997   14.12403989008812
N         9.64198745784899   14.23725740050130   15.45174197051497
C         8.85517253900718    8.76711008270513   13.53148099737327
C         8.02160947766330    7.67193725765487   13.40046739333423
H         8.41343538731194    6.74493151448590   13.01161765353764
C         6.68908569364085    7.77497312701640   13.76491715429245
H         6.04045427751054    6.91923832207351   13.66451551266790
C         6.19046810651494    8.97477964961414   14.25482138412768
H         5.15289396391964    9.04990767109284   14.53977591412473
C         7.01386068436960   10.07338464695469   14.37964390832602
H         6.64543533113109   11.01426832165005   14.75643327719250
C         8.36208239551768    9.98528586605183   14.01400607491049
N         8.78496615375209   12.10472642374531   14.71370245654316
C         9.73846530107849   13.03778125476161   14.83448029316448
N        10.98508394262782   12.85556602505960   14.35817635544624
C        11.69404311876154   13.95335108921388   14.69595444538533
H        12.73422130672686   14.06279647478867   14.46010248347615
C        10.86869859817859   14.81744297212561   15.37234240295714
H        11.07262180827658   15.77718834141377   15.80067796757359
C         8.47273412570264   14.76696437578993   16.09761304118905
H         7.68145474890643   14.02269852049105   16.04468969707631
H         8.14875524070357   15.68287613508361   15.60103333234761
H         8.69127090397069   14.99044296199609   17.14240666816983
C        11.19662566315833    7.49033718419097   14.29896970828777
H        12.23766080966947    7.30385357700288   14.05022858733120
H        10.62368058400182    6.57031287424222   14.23870631284687
H        11.12089471232976    7.94940651944737   15.28176418973607
O        14.10402723831401   10.87810241994048   13.64650895846229
C        11.60883380430641   10.65382470276385   10.11406360563750
C        11.35414788615380   10.98960076000095    8.78527915133450
H        10.59616956450708   11.72473195327463    8.55310119450024
C        12.58522757768451    9.71294850685915   10.41808989422804
H        12.77928982739335    9.45496433847320   11.45316318430128
C         8.93784116733841   11.10639280866575   11.03481917189665
C         7.92716733440875   11.94553414188291   11.50368600084619
H         8.18707929979939   12.87843989626403   11.99003894813933
C         6.60226234937861   11.58485907041325   11.34764224066815
H         5.82088890576114   12.24119108148138   11.69976938660170
C         8.60752971061794    9.89281246267208   10.43810820156932
H         9.39328945875000    9.23595552962658   10.09085010361393
C        10.91644738278788   13.24099645847548   10.98105185970490
C        12.10017544713501   13.81647468453624   11.43888181470061
H        12.77449225192012   13.21531085874638   12.03854562016062
C        12.40620668490923   15.12452966293825   11.11618443624799
H        13.32445334941848   15.56888095974098   11.46885167095761
C        10.05115818942117   13.97747534521681   10.17867165342530
H         9.14082914256758   13.53281925838714    9.80177857982512
C        12.97467137265781   10.87876997280053   13.52177014538827
C        13.04658376169017    9.44307656110030    8.07945315200291
H        13.60841675887485    8.97352496411307    7.28693457986071
C         7.27861027682414    9.53677100880336   10.29069210685427
H         7.02475357560852    8.59810775354524    9.82262711786901
C        11.53297095518241   15.86340545530651   10.33209561453680
H        11.76843970426553   16.88600616614530   10.08082580917580
C        13.30178100568287    9.10924733931194    9.39926889590636
H        14.06140393077521    8.38012997032665    9.63602022866859
C        12.07176374544356   10.38122314438354    7.77371853246098
H        11.87444479942007   10.64055984090293    6.74483734233331
C         6.27733813004324   10.38015024079754   10.74286239548859
H         5.24207408833321   10.10008397393852   10.62511647548375
C        10.36338452336940   15.28868170281552    9.86232864614894
H         9.69155525157736   15.86156117897597    9.24122243925068

