63
CSD_code = QOPVOG | q = 0 | S = 0 | Stoichiometry = C20H32B2N8Pt | MND = 4
Pt        4.09589918525454   -0.00003286061980   -0.00002982208931
N         2.42551470543852    2.32071997415255    0.76343447562994
N         2.95110995251145    1.27302334789174    2.58287610735043
N         1.70810522865636    1.20305992795732   -1.30036523212861
N         6.61643763725584    0.94676385654204    1.49983601108419
B         2.18195541093264    2.57950809765258   -0.75512436197426
C         3.10362528089740    1.26971453995866    1.23767080803176
C         1.86016887550961    2.99484051360607    1.80051002991530
H         1.27178263886370    3.87696559924319    1.65026606966798
C         2.18226325918118    2.34780881580394    2.94891510702083
H         1.92175529767826    2.55007295763898    3.96789683387985
C         3.45151635179563    0.26597573069576    3.48448190180991
H         2.61195805957656   -0.14958807812052    4.05343974042869
H         3.88823949099804   -0.53059888164287    2.87106661734765
C         4.49905155723928    0.81599788864792    4.44760067000268
H         4.82645685568410    0.02638617394546    5.11830830363722
H         4.09083423339559    1.63082393219145    5.04188996393059
H         5.36395418815079    1.18284653523146    3.90176779710714
C         5.83490652231707   -0.06228871479477    1.04613346626391
C         7.75529967114611    0.42399189508378    2.05354463960015
H         8.52128452649642    1.03935106482019    2.48072813908385
C         0.53255076100906    0.92398474182442   -1.92477395440127
H        -0.14581412647332    1.69476858198037   -2.22861062585047
C         6.33821202855841    2.34927839422641    1.30815841828714
H         5.39912488713949    2.60886720184185    1.80874855922618
H         7.14884082302795    2.92454221799631    1.76486298128586
C         6.21188939580998    2.67307740224182   -0.17745081552198
H         5.97386066699783    3.72422402973335   -0.31344534462948
H         5.39961016541925    2.07219721143415   -0.60481303945989
H         7.13883188196210    2.44479504656344   -0.69976455505321
H         3.20086961089505    2.89759903596544   -1.29090278585867
H         1.30428548903979    3.37492119139450   -0.87841453342079
C         2.35716735119172    0.06248383287481   -1.04645144698771
C         5.08850743829311   -1.26970460846518   -1.23749745287837
N         5.76658226875062   -2.32073779717156   -0.76317833463019
B         6.01006339724768   -2.57945110837181    0.75538206800021
N         6.48391013798684   -1.20285420842843    1.30036311764943
C         7.65946217455164   -0.92368546014975    1.92476242355454
H         8.33784276743821   -1.69442633595329    2.22870727054084
H         4.99093952794687   -2.89763448925620    1.29079181659031
H         6.88758751970101   -3.37508745791932    0.87842933641166
C         6.33190939038484   -2.99494283075480   -1.80026624203163
H         6.92033278410355   -3.87704979306332   -1.64997898638507
C         6.00982627314203   -2.34794943394602   -2.94869297647833
N         5.24092795653552   -1.27319669425877   -2.58272075409142
C         4.74045880528428   -0.26623855645767   -3.48440327432868
H         5.57999416929548    0.14936993000850   -4.05334689303465
H         4.30365623642710    0.53037133669044   -2.87106817151203
C         3.69302532811481   -0.81629541545569   -4.44761138070161
H         3.36572280519590   -0.02677131376866   -5.11847531040633
H         4.10129711574171   -1.63120710922159   -5.04174910565971
H         2.82803800935448   -1.18305248183003   -3.90185253571175
H         6.27034326654140   -2.55026890254705   -3.96767470037129
N         1.57550601033862   -0.94654734491240   -1.49997717132508
C         0.43663457838791   -0.42368844935825   -2.05362161118341
H        -0.32940970807057   -1.03899945791269   -2.48078472221341
C         1.85369320034412   -2.34908612774261   -1.30832544119044
H         2.79269854510824   -2.60871683740840   -1.80904612995925
H         1.04298426294200   -2.92431366037815   -1.76493505396535
C         1.98013046445861   -2.67293886927365    0.17726501257128
H         2.21827610144393   -3.72406773452092    0.31319828444716
H         2.79233246414251   -2.07209560578114    0.60467778610626
H         1.05317884531061   -2.44481438635319    0.69963900896893

