47
CSD_code = QOPWOH | q = 0 | S = 0 | Stoichiometry = C12H30I2P2Pd | MND = 4
I         0.64142127469955    1.58270484129397   14.25989805911869
Pd        2.69204628613555   -0.00019708860473   14.29419503992740
P         3.76896354626226    1.30562902126453   15.83715763281529
C         3.83911202805527    0.30567291839450   17.38339334349942
H         4.68073059821975   -0.39010856662816   17.31287881852173
H         3.99196903364123    0.95308812636611   18.25101567312223
C         2.52280235599619   -0.46414718167927   17.50230369699463
H         2.52157444463593   -1.10628502418335   18.38130540985226
H         2.37828750221255   -1.10894765887871   16.61568924106974
H         1.67602318188858    0.22251491595668   17.57693188652515
C         3.03992505363151    2.90139357057665   16.41525644153103
H         2.78405667158250    3.49294583562964   15.53070797184366
H         2.09451165778016    2.63897334237405   16.90278051177631
C         3.90062483954686    3.73048566452864   17.35955501310267
H         3.28753074132489    4.51083406134692   17.80631231589564
H         4.71804117846203    4.21550167994491   16.83120915698517
H         4.31725581411413    3.12901966230980   18.16562620674285
C         5.50154474280057    1.75679736921498   15.41786226100493
H         5.88854251026013    2.47322903132509   16.14481345599664
H         6.11934726120647    0.85650083662525   15.46046345905272
C         5.50227499761045    2.33073141285468   14.00328396450108
H         6.51429576462090    2.54206226689333   13.66484239298665
H         4.92039870123939    3.25186631349896   13.95466829224831
H         5.05830787424373    1.60549806834103   13.30901524256879
I         4.74344503458266   -1.58249397759742   14.32821417456655
P         1.61558709651107   -1.30566779623913   12.75069416818756
C         1.54539593222454   -0.30564456395990   11.20448836904008
H         0.70376215532581    0.39010799850025   11.27505756844025
H         1.39250292183332   -0.95299479282056   10.33682250477221
C         2.86169104455420    0.46419813888066   11.08547763632972
H         2.86294486578032    1.10627061231002   10.20642812183870
H         3.00622105190768    1.10910508562076   11.97201243769118
H         3.70846218645449   -0.22248704247079   11.01092010594259
C         2.34459988530319   -2.90138877116245   12.17249823945241
H         2.60040835825770   -3.49294410321616   13.05706035910331
H         3.29004597530875   -2.63895609039763   11.68503697863254
C         1.48390163363378   -3.73039556213250   11.22812406460103
H         2.09703253514979   -4.51067952167308   10.78126944141549
H         0.66652069399415   -4.21548584554403   11.75649767103403
H         1.06721442307853   -3.12882289113543   10.42212881708430
C        -0.11697123634890   -1.75686894561173   13.17002270215234
H        -0.50400809491445   -2.47324257460144   12.44303635588548
H        -0.73474105069493   -0.85655185645033   13.12749347365362
C        -0.11765201697062   -2.33087633421258   14.58456488727576
H        -1.12967244649073   -2.54226704116682   14.92296206666581
H         0.46425943315623   -3.25199028763576   14.63311583435816
H         0.32626155819384   -1.60568725604824   15.27890853419727

