122
CSD_code = QOPWOK | q = 0 | S = 0 | Stoichiometry = C50H67FeNP2Si | MND = 4
Fe       12.59583727053739    2.58977611173155   15.72306835044434
P        11.15630008129546    3.00166463524453   17.33216909914255
P        13.93728021684374    1.51175921818467   14.36663152187830
Si       11.12812174037457    4.74987701961983   13.52785416846985
H        10.18969267028035    3.65790734979520   13.18608857746251
N        12.74017227644508    0.91329354113325   16.70751508532271
C        13.66173594938976   -0.06113024466769   16.47975990772112
C        14.75639051433956    4.77966234251993   15.51058494527606
C        15.23024897109402    1.84710109665955   13.06014110269001
H        15.25916517932615    0.96342759168579   12.40586173017977
C        13.39685437090255   -1.14144470887311   17.29150803496684
H        13.95108899685677   -2.06042743400917   17.34170695878583
C        11.79378183446399    3.82766948637399   18.87634981667389
H        10.98221058789047    3.84748466939671   19.61517910569284
C        11.87678952013845    0.45728571681763   17.65465065061479
C        13.56564684722012    5.08033266998506   14.75579223635833
H        13.61649557639565    5.99559975060364   14.17034320299012
C        12.51032307592495    4.23849457375308   14.69364978172482
C        11.84602938683856    5.34167894978190   11.88190412370902
C        12.21662791843330    5.25765483754320   18.53969870332217
H        12.95787086561269    5.23001141965350   17.73663186730919
H        11.35248222786615    5.82012677004836   18.17817317430000
C        14.69833104090987    0.21007261427932   15.43777272130551
H        14.98594794840995   -0.68219838707315   14.87629720857128
H        15.59900332098476    0.64171125745883   15.88957623427906
C        14.80757198517974    3.06798754535872   12.24405818073595
H        13.81715270498353    2.91638766576055   11.81101495304719
H        14.73848801813565    3.93005485028874   12.90832654803762
C        12.65594213715812    0.62302868089278   13.34414753268970
H        12.59013684412334    1.20500862231245   12.41377919017448
C        10.12867492431688    6.17633524331419   14.26877835429675
C        15.94909443948699    5.48558037355672   15.31403907418714
H        15.95992217914503    6.31604931265900   14.62157008487944
C        12.25220662168480   -0.80870220589466   18.04591668387392
H        11.76875901247404   -1.42654761398724   18.77985113031626
C         9.51446002240447    3.84972656589090   17.03839937034092
H         9.78119553927426    4.80692396010837   16.57300369114378
C        15.92641920815890    3.35669537643163   17.08567244810219
H        15.91436354025572    2.53576519808473   17.78924066437000
C        12.95608025417165    3.03628550644092   19.47790831468771
H        12.62270917093057    2.03939501872608   19.77092975609542
H        13.74297096063336    2.90999011001557   18.73535961550830
C        16.62239298455889    2.07152009291831   13.64628733035609
H        16.58925014836228    2.90638427253659   14.34777404106368
H        16.95465050552454    1.18336622383613   14.18756675258633
C        10.71124045683996    1.32980171738872   18.00002146194464
H        10.50420351636363    1.36229087486271   19.07386581822797
H         9.81067374385963    0.96712523320855   17.49310045216409
C        14.76876646638772    3.71303649586867   16.41929094028267
H        13.81366089082574    3.25311662446026   16.72683680184150
C        17.10206398675114    4.05536851457974   16.86069050507754
H        18.00737707548180    3.77483260417700   17.37777758585519
C        10.58266782672259    6.86974940579032   15.38453364138108
H        11.53268342857059    6.59421450563926   15.82029835431800
C        12.81368031140190    5.96104991170838   19.75537855864399
H        13.13903813800344    6.96532246624615   19.47600278554098
H        12.05042996575230    6.06092731341141   20.53189297600237
C        17.62900691859246    2.38337763678141   12.54005566378985
H        18.61216556206278    2.55785872096003   12.98227130167229
H        17.71166874851226    1.52320974933732   11.87040143663227
C        11.30932822444545    0.73713984705408   14.06281740505800
H        11.31545835552554    0.10366807945526   14.95182021294050
H        11.14894739607914    1.78680348735796   14.37966485440383
C         8.64414000780338    4.12743477102133   18.26263646806290
H         8.35763243173433    3.18557703929115   18.73728850919780
H         9.18217014294680    4.73096485844940   18.99463398231594
C        17.10368793816351    5.12775080626412   15.97964428646301
H        18.01598184478644    5.68214646358066   15.81133270178366
C        12.34680695563958    6.63027744633543   11.73618771430315
H        12.25267349063543    7.33001365543851   12.55580255844518
C         8.71480255777534    3.04536081618076   16.01348172766264
H         9.34470071653782    2.83563825731026   15.14722020937422
H         8.40184841533327    2.09278605431328   16.44766960087028
C        13.53260658347531    3.76105672451725   20.69130518365225
H        14.37186286603765    3.18991137199998   21.09322703718561
H        12.77218874978952    3.83137721555267   21.47359508945453
C        17.19264971197815    3.60529033810733   11.73913374145915
H        17.15288562479606    4.47356676925832   12.40022052861869
H        17.91803734446698    3.81307628154783   10.94976689981484
C        12.91457599697751   -0.83867469396293   12.98927885026206
H        13.88069662871204   -0.95567725190529   12.49192822311572
H        12.92417636229066   -1.43775441108319   13.90210731557488
C        15.81208954427842    3.36803486635744   11.13732627025528
H        15.85815729773311    2.52637729481758   10.44114859524465
H        15.48422612326570    4.24754512411326   10.57929501405892
C        11.95247860273687    4.47649418061824   10.79939093929685
H        11.54923772787238    3.47637180490148   10.88571284477193
C         7.46751897138969    3.81108007421745   15.58423174976492
H         7.76350548539918    4.74794083259604   15.10912186336827
H         6.90543896077869    3.22449806487385   14.85417192962801
C        12.94773534515733    7.03721706017520   10.55867209143342
H        13.33192955654858    8.04364606380567   10.46613091345415
C        13.99076170658018    5.16366739411178   20.30605395787373
H        14.41251676478550    5.67197504522273   21.17568473851141
H        14.77008319180043    5.09514890983481   19.54339193027802
C        10.18676029847600    0.27095193439957   13.14264435450778
H        10.15224847268037    0.90141899717456   12.25050483249458
H         9.22275851076888    0.35544172124034   13.64891974453290
C         7.38986109047484    4.89121189613231   17.83739938678629
H         6.76686758512438    5.08930806125212   18.71267381010928
H         7.68719797362369    5.85236298610273   17.41024150081318
C        13.05631462244171    6.15581795080251    9.49644568959866
H        13.52801341967684    6.46929469665900    8.57597674064646
C        10.43477205835300   -1.18141252471610   12.73798431064050
H         9.65018089350444   -1.51839401625115   12.05734226399343
H        10.39776903463865   -1.81085792621488   13.62989259280612
C         6.59435620380959    4.10850170040873   16.79871308951805
H         5.71546898373022    4.68125078768598   16.49650102140202
H         6.24732290591579    3.16981415880888   17.23811370934842
C         9.84095595396065    7.89684202343801   15.94144159457232
H        10.20967649901839    8.42012186227822   16.81314501999620
C         8.91120676806171    6.55541515578146   13.71407162567059
H         8.54631747355305    6.03493726562145   12.83930403809092
C        11.79951007900112   -1.33834231311984   12.07076386006632
H        11.81524807607268   -0.76723547040904   11.13881181342229
H        11.96834629881779   -2.38803250911047   11.82083517642279
C         8.62465426626012    8.25246140015109   15.38323971475089
H         8.03960674670373    9.05064117320563   15.81759793587806
C        12.54924520452848    4.87287020563538    9.61682857799043
H        12.62211664210696    4.18333592473555    8.78710543074965
C         8.16338138418264    7.58258439364454   14.26198250842692
H         7.21740830603661    7.86035240057287   13.81847341309420

