82
CSD_code = QOPXAX | q = 0 | S = 0 | Stoichiometry = C28H49FeNP2Si | MND = 4
Fe       -0.16066532110333    1.15843397048021   10.56099198854029
P        -1.95133248500139    2.19426239752843   11.42346215229264
P         1.11463954676299   -0.43383421317548    9.64359917805425
Si        1.16253539511189    2.95226196838381   10.33876094197176
H         2.35680907027547    3.12519048114427    9.46535481593979
H         0.69155991556779    4.36725594482646   10.32776580591587
N        -1.18027535440343   -0.41506565912921   11.15162033601156
C        -3.15385560710489    2.29404520971459    9.94709926648252
C         1.94138699853016    2.74051780574103   12.06223321686836
C        -0.95968703164525   -1.70385892448756   10.78259092002717
C        -3.20257021517165    0.88492737989252    9.34952755762129
H        -2.19129210380458    0.55209903216114    9.09451715773378
H        -3.80510125922532    0.88500012534645    8.44096121524634
H        -3.63059359853921    0.16592746393515   10.04400830975558
C        -4.58192260526123    2.74481120070770   10.24070314833567
H        -5.04562094041998    2.11733420938368   10.99926141384747
H        -5.17709855377792    2.65590795476872    9.33130398969683
H        -4.62465889511014    3.78255852716475   10.55941506751241
C        -2.69142464997470    0.90854223364241   12.54146722605356
H        -2.32251586435553    1.10205614518159   13.55640205365317
H        -3.78401717283104    0.95911495670008   12.56241110318650
C        -1.82668496553522   -2.53424066856894   11.45598372148164
H        -1.88872925109937   -3.60389755528175   11.37481390111714
C        -2.20429764571069   -0.41198523840545   12.04516059562708
C         3.01818559192217    3.47643983946759   12.53443879732961
H         3.43438513877431    4.25125268208844   11.90697237756431
C         0.00541412097301   -1.92859668812260    9.66681569817429
H        -0.55399913005443   -1.95981172136325    8.72434626563854
H         0.55588911655529   -2.86643286229666    9.75988974013143
C         3.55984386727017    3.23110803844941   13.78464862822634
H         4.39672145533451    3.81718824965258   14.13821408795661
C        -2.19962115105661    3.74710775744419   12.50888145272144
C         3.03236745553586    2.23106564614938   14.58385803791199
H         3.45479367557547    2.03456858560525   15.55881699981355
C         1.95871252446314    1.48114772607093   14.13049300872147
H         1.54484795595237    0.69842319821811   14.75159406501491
C        -2.50886060603566    3.20729832017346    8.89966135101179
H        -2.57130124369925    4.25492312252666    9.17364880990767
H        -3.00707385634939    3.08224379726042    7.93839763187378
H        -1.45294932750411    2.94811497001078    8.78080644941739
C         2.66285007520095   -1.12413866132856   10.49426486527948
C         1.41565021271132   -0.22828719232235    7.77373588405479
C         1.42361306943906    1.74120218530786   12.88232664534541
H         0.55347528633653    1.15415973905482   12.54349625599867
C        -3.49001525378209    3.72840401663492   13.33398455327839
H        -4.37250625271468    3.58596682417975   12.71962614720122
H        -3.59138491270631    4.68535758060369   13.84626067174741
H        -3.46801457049785    2.95202217722068   14.09400535083462
C         3.65362434089763    0.01347002793185   10.74143193256223
H         4.04187888822732    0.42014910074033    9.81288834913756
H         4.49663308690639   -0.35293948823347   11.32718436809652
H         3.18127845305242    0.81951433777779   11.29620243297156
C        -2.62676878955910   -1.70374562807605   12.26804401252954
H        -3.41411006796180   -2.01785171555751   12.92863103198304
C         1.51696529289446   -1.51259092609069    6.94928050248273
H         2.38953951947117   -2.09766762387842    7.22110145591281
H         1.60979425665466   -1.24562730674124    5.89618680181323
H         0.63680718462408   -2.14153873660016    7.05049675924746
C         2.64998660740129    0.62776704643731    7.49966376424499
H         2.65255566158058    1.51634801983417    8.12407627194850
H         2.65234476098930    0.94484919316313    6.45660192606723
H         3.56420856406955    0.06612870482636    7.67385864531927
C         3.36619697481576   -2.25313957780376    9.74360053286956
H         2.67429494794414   -3.03685229110578    9.44308968019495
H         4.11323643768087   -2.70334570003321   10.39748601430191
H         3.88164576733658   -1.88022278380065    8.86201575430222
C         0.16909981923294    0.55469685187951    7.34148852012525
H        -0.72654580863918   -0.06053739063764    7.42537335529462
H         0.25386942525381    0.88146770538423    6.30597175194785
H         0.05274887732314    1.44409353247259    7.97518941004027
C        -1.01200463717362    3.76358760938829   13.47568455138962
H        -0.91551472050134    2.82054718769253   14.01247360671340
H        -1.14425328291773    4.55366345477908   14.21435826842501
H        -0.08338046503941    3.94975032563134   12.94236566625211
C         2.16834644810261   -1.64047878956295   11.85019435056336
H         1.52943403856432   -0.90001489856548   12.33008167034505
H         3.01483877285213   -1.83455867881132   12.50799353461712
H         1.59944946472005   -2.56137712135066   11.74964214546550
C        -2.14498771210505    5.03173838475529   11.68366021445774
H        -1.29364670852729    5.01919482845057   11.00763444415783
H        -2.03136881722090    5.88547732098646   12.35190083809393
H        -3.05660722877184    5.18255294634870   11.11164857800848

