84
CSD_code = QOPXOK | q = 0 | S = 0 | Stoichiometry = C39H39AsCl2N2Pd | MND = 4
Pd        4.01088895403521    5.78349724096423    4.64977193694048
Cl        6.15980368765717    6.56120269167890    4.37565680924501
Cl        1.81513798673794    5.23424341779918    5.01872832575550
As        4.04153188225437    7.05059550854969    6.64058883058731
N         4.89557874472320    3.67026505376249    2.85842252170595
N         3.24636050320738    4.71208928264384    1.94735897603059
C         4.05742905157537    4.71014852651109    3.01383103042551
C         4.61203040611622    3.01928731710417    1.68473179831603
H         5.14582187878990    2.14642971893230    1.36908676006329
C         3.57292139451154    3.67248675254486    1.11356302361703
H         3.06139467232213    3.49834752959087    0.18916752702067
C         5.98507395479884    3.40514989575315    3.73704919739882
C         7.28688575595567    3.61535701096574    3.26784535812309
C         8.34521813693205    3.39583458385806    4.13107259292390
H         9.35289241443907    3.56823930085024    3.78190925893022
C         8.14254837598134    2.99587983019811    5.44618965024761
C         6.84500061097837    2.81193412002700    5.88992904176312
H         6.66760218051734    2.51637298131357    6.91484168810113
C         5.74933402863310    3.01462971117855    5.05612294770952
C         7.52983898465484    4.14735385633921    1.88856421375873
H         7.18134657515265    3.46158084780454    1.11801972477896
H         8.59035936920812    4.32714705350061    1.73666366054085
H         7.00119326062006    5.09340905612959    1.77266027475666
C         4.36844502066942    2.82011561586535    5.61560378699488
H         4.05851359505639    3.72187712121533    6.17828597555492
H         4.36252127144368    1.98523624662472    6.31460718724247
H         3.62911907940803    2.63005890432822    4.83620433955039
C         9.31306122697317    2.80003683821299    6.36033320552601
H        10.02900526804110    2.10747132916027    5.92043705402159
H         8.99602497327550    2.41025296925438    7.32434574532198
H         9.82423542633911    3.74935927110194    6.51775188470137
C         2.21166200976430    5.66748176979876    1.74608201173003
C         2.56199064583952    7.00259362016326    1.52739786153761
C         1.54331689898364    7.92533850685018    1.34546629943384
H         1.79818000846440    8.96052096594508    1.16814900941860
C         0.20712904110622    7.55233415640725    1.38383746135626
C        -0.10662808509003    6.22028208865637    1.60466779155506
H        -1.14309648566645    5.91917307325776    1.64999188700614
C         0.87788222379769    5.26131539365708    1.79137555744899
C         3.99821424592543    7.43010503740511    1.47868530126490
H         4.45121512411778    7.37885272414493    2.47771455814912
H         4.08070265027343    8.45423821884941    1.12431307130648
H         4.57610613168000    6.78314032655111    0.81809074325064
C         0.51153563745550    3.84472297558413    2.10685520510869
H         0.98827712499512    3.13689195486746    1.43149084920270
H        -0.56489165115301    3.70934934024309    2.05168352812097
H         0.83584618682366    3.62173699671977    3.12384152475067
C        -0.86684805898193    8.58267535469404    1.21136977721187
H        -0.94328572261254    9.19242940726875    2.11188768758628
H        -1.83185199145595    8.11485399366836    1.03395900834544
H        -0.63609514608947    9.24423090161666    0.37813693753678
C         2.55629249129403    7.27132681829602    7.88622387208606
C         2.39241956603277    6.29817530279533    8.86717621973602
H         3.11108870177288    5.48238710125037    8.92504504622333
C         1.33503619897896    6.36557586212514    9.75427289482112
H         1.21498446975614    5.60644524774773   10.51404389241749
C         0.42338052611972    7.40519054425632    9.66215671948010
H        -0.40641344081881    7.45849010489402   10.35179690665019
C         0.57182546189821    8.37018664024330    8.68104362941712
H        -0.14323965265104    9.17710064601070    8.60439394952966
C         1.63211936738360    8.30264239390322    7.79313547887175
H         1.74427130913874    9.05609877641845    7.01965336064981
C         5.49741919670169    6.98693203497007    7.93254332411443
C         6.50170832056433    6.04150125448557    7.76108054187535
H         6.47648198257547    5.38876661572263    6.89151987709373
C         7.53444168401370    5.94599863070021    8.67808145004226
H         8.31479131571168    5.21216572728141    8.53685712847080
C         7.56503299991689    6.78977156148896    9.77524682142698
H         8.37147818505008    6.71888046640643   10.49076508630667
C         6.55674200640332    7.72234706155322    9.96259989195920
H         6.57654562007509    8.37420032561665   10.82453313453563
C         5.52278260981258    7.81672096663341    9.04891960738541
H         4.71839146546891    8.53060427662055    9.20109762192292
C         4.11590563558830    8.81470841501135    5.83494924807743
C         4.88974751106517    9.87444707741003    6.28582923724882
H         5.51039846273908    9.75005772560666    7.16614032524963
C         4.88873501069510   11.07637212872610    5.59714278022100
H         5.49954643018532   11.89653829332399    5.94714417657430
C         4.11343544741188   11.22664183782261    4.45984879688396
H         4.11518301070794   12.16627872144736    3.92614812090650
C         3.34376472324302   10.16990603141299    3.99986581035430
H         2.74178574385154   10.28576567039455    3.11010500072188
C         3.34957345369514    8.96487751573707    4.67903418172374
H         2.74616472641545    8.12334183358521    4.31176546805058

