81
CSD_code = QOPYIE | q = 1 | S = 0 | Stoichiometry = C36H40CuN3P(1+) | MND = 4
Cu        2.55903534053965    4.54471529001327   10.69224220012067
P         1.80528450241701    3.34457294512790   12.44567965235474
N         1.92025248224620    6.29116183053409    9.64903640237885
N         4.43065591976998    5.56602404974930   10.88106555800890
N         3.11786367255507    3.10376660638674    9.34452325522166
C         1.13152180223196    5.98043158969579    8.46009064333236
H         1.68089726999529    5.29370515831325    7.81912126316219
H         0.89652205461437    6.88604559374051    7.88822038773514
H         0.19422583881553    5.51165390001830    8.75380584401050
C         1.13641952358992    7.16013607304171   10.52377944490844
H         1.70400120154444    7.40829584456888   11.41646217456560
H         0.22828920375566    6.64389928247790   10.83016046140879
H         0.85649943991325    8.09085028771878   10.01552713228393
C         3.17614339132336    6.93562196068701    9.25094280653975
H         3.57127549861369    6.38857974779031    8.39277449158728
H         3.00141402483882    7.97426274292981    8.93752517267612
C         4.20516992650601    6.92364623507611   10.38210185653790
H         5.13631646050220    7.38337554581886   10.02672835873195
H         3.83232514616632    7.53280648763436   11.20525149449593
C         5.39518440593267    4.85508297207457   10.03885010181390
H         6.40965657258734    5.22640915304764   10.23984815715459
H         5.16262833394175    5.07720389706717    8.99584948414625
C         5.38240525827390    3.33173014857667   10.21871392515468
H         6.36698823143147    2.94354169863704    9.95451179418312
H         5.20462513327182    3.07982668074514   11.26694556254142
C         4.35276197845547    2.60791741953424    9.40030270449690
C         4.68364472541859    1.42609775059737    8.74379334996080
H         5.69154614457440    1.04581874833010    8.79801391675627
C         3.71350826873853    0.74617365918721    8.03013552573628
H         3.95250620269119   -0.17256604133866    7.51725067361436
C         2.43010226278440    1.27087406968093    7.98579672645457
H         1.64081141485905    0.77676603788631    7.44355465325954
C         2.18492574602333    2.45224513296801    8.65813969931959
H         1.20077051705654    2.89915064031414    8.65421532730429
C         4.81395259108615    5.56349570775396   12.30493548519676
H         4.80418148931307    4.52747392390139   12.65108924491556
H         4.03221923615442    6.09454849249225   12.85397829647949
C         6.15976046067369    6.17762073620365   12.60100691676216
C         6.28997399669273    7.54228077355182   12.83005079521973
H         5.41343500989107    8.17422016498256   12.84006010592713
C         7.53284469899801    8.10255886745925   13.06682518420832
H         7.61706492389139    9.16373323648804   13.24528472940174
C         8.66416763041261    7.30467324106408   13.08069963536505
H         9.63327821490759    7.74189624069012   13.26424708879931
C         8.54468531048299    5.94150709964929   12.87155401171376
H         9.42049668795576    5.31074080640865   12.89542214216946
C         7.30083918400453    5.38293138301145   12.63557523915670
H         7.21468219162467    4.31488202298599   12.49026382606315
C         2.73141528937657    1.78138701240079   12.47747979628854
C         3.94803176845347    1.69907804049749   13.15241601823911
H         4.26900776558991    2.51939767117564   13.78214782225170
C         4.73176047235998    0.56538624510942   13.03886120732357
H         5.66634504062380    0.50200714023698   13.57617593201900
C         4.31957734676499   -0.48673336927285   12.23658114962263
H         4.93312019051260   -1.36998423033880   12.14842143756235
C         3.11772153733521   -0.40519476770739   11.55217067040049
H         2.79413157850003   -1.22464981468014   10.92812569111319
C         2.32825151720233    0.72409117917909   11.66618603158499
H         1.39107423824346    0.78926070606879   11.13036553954945
C         0.08126782403822    2.78376712671762   12.26335281154125
C        -0.67155352387622    3.32492418851573   11.22832972650873
H        -0.20253632097469    4.04676454770639   10.57025123682175
C        -1.98901192618936    2.94331045490419   11.05001584094684
H        -2.57317083685517    3.36494439509473   10.24558761721669
C        -2.55806339200681    2.01861986119088   11.90996434106833
H        -3.58588793011054    1.71890171582761   11.77491599375340
C        -1.81089321581871    1.47787770058574   12.94527248304690
H        -2.25829738517855    0.75734428094536   13.61306271120073
C        -0.49429440229673    1.85769594965156   13.12729858662733
H         0.08759664245629    1.43603472742480   13.93389156018187
C         1.80372340416617    3.92436020036944   14.17308808131808
C         1.96517600364572    3.09322248377952   15.27633797872033
H         2.14808826765677    2.03625741804699   15.14342303188115
C         1.89924435868519    3.62658023140077   16.55129666573322
H         2.02515085246121    2.98093653867865   17.40737266658379
C         1.67010897094274    4.98074813049497   16.73385692452922
H         1.62032444906369    5.38874534044123   17.73161631526231
C         1.50423488106773    5.81143888466569   15.63712304509730
H         1.32239851970821    6.86613172022586   15.77958038733514
C         1.57260035248960    5.28430104856440   14.36154497145832
H         1.43909814055548    5.91636140662018   13.49213282429679

