54
CSD_code = QOPYID | q = 0 | S = 0 | Stoichiometry = C24H26Cl2SiZr | MND = 12
Zr        2.01637158481631    2.26579737331372    2.79290596739609
Cl        4.17567918133000    2.15627202519638    1.94451725160744
Cl        1.79197623921662    4.56580335194627    2.56831993151290
Si        4.64726197411524    2.73968409753662    5.38277983577935
C         0.32807599822213   -0.22675101072589    3.57045367431970
C         0.50848821114347    0.47200843833715    2.20779377696213
C        -0.14582082516972    1.70736985446609    1.83808920173943
C        -1.26229832483315    2.42585850134880    2.33239426281526
H        -1.87484801778347    2.03837715438177    3.13104581653129
C        -1.63953810914667    3.60862699290510    1.74080923910201
H        -2.49539850265112    4.13970790566239    2.13149142204017
C        -0.96270146000864    4.14061543237747    0.63613168259645
H        -1.29967566709392    5.06893420544115    0.20239350559492
C         0.11479192715095    3.47491782394430    0.10274715635382
H         0.63339081535955    3.86238161993279   -0.76401130249832
C         0.53993132462961    2.27979047648763    0.69554711470462
C         1.60935565616331    1.39309634591744    0.34291730847533
C         2.53006044842954    1.46206604721483   -0.70786107694625
H         2.50270707424808    2.29709600241814   -1.39497140943243
C         3.45695175199369    0.45797978738936   -0.85305386434376
H         4.18015832722886    0.49393766298131   -1.65255589141318
C         3.45919195718432   -0.62541624004908    0.03293244393740
H         4.18609511707772   -1.41169348630380   -0.10827781984986
C         2.56094199777942   -0.72851040889861    1.06876389260327
H         2.58989667006325   -1.61789907275101    1.67607699746065
C         1.59745774301759    0.28617722230021    1.27776790385046
C         0.92925791959639   -1.63718488306334    3.62661467713742
H         2.00989681613559   -1.62892812466836    3.54168362319536
H         0.50912685051584   -2.25553478246097    2.83659102092124
H         0.68583717676876   -2.09200692771081    4.58505879055196
C        -1.15100005743726   -0.37134282254843    3.96806202590873
H        -1.25100129890314   -1.11530085094199    4.75524810998942
H        -1.73503282968297   -0.69948494332878    3.11124427352056
H        -1.57529690844896    0.54913361394045    4.34992338125915
C         1.10790548336205    0.74365118475368    4.45791106559574
C         2.52852184019409    0.78844481084276    4.54443046154916
H         3.22207139384618   -0.02998809129582    4.38031258591477
C         2.91809831185330    2.07031084095294    5.03426929095614
C         1.72619133512616    2.81258910502254    5.23346828344811
H         1.66722848004053    3.79605198060318    5.68323592215369
C         0.62593386842810    2.01497062981830    4.87218401303897
H        -0.40618692953854    2.30240382339470    5.01831494648003
C         5.96500048901464    1.46338563217233    4.85571865210677
H         5.86843394081707    0.53904121946746    5.41793603750112
H         6.96188678679817    1.85064522200192    5.03817115891363
H         5.88969597045756    1.22830804366746    3.79890363877146
C         4.80417099866026    3.03565094168228    7.26709165455050
H         4.71184408754142    2.11010942238758    7.82563785313143
H         4.04249441659336    3.71639213883087    7.63255755743445
H         5.77053319288867    3.46671240871740    7.50457357384705
C         4.76711020898754    4.41891218333768    4.48005365166037
H         5.72777447870789    4.89609035638382    4.64759718909868
H         3.99736602112549    5.10459714165801    4.82817294136069
H         4.63833486406970    4.30304262362115    3.40528659908960

