57
CSD_code = QOQFOT | q = 1 | S = 0 | Stoichiometry = C18H24Br2CoN12(1+) | MND = 6
Co        3.65105791504273    6.17904892787428    0.00001094569681
Br        2.29777318319883    0.16149713167917    7.58473921999607
N         3.29746935858783    5.15335415557288   -1.63430530174859
H         3.46050283825177    5.76340632474029   -2.44330132610198
H         3.90355778955814    4.33508308394817   -1.73306869483402
N         1.69658708973907    6.22553241389215    0.22671992232541
H         1.42180905597942    5.56988172414803    0.96440059360979
H         1.34492808668652    7.14739739431278    0.49677583254783
N         3.76162058685669    4.60897195626434    0.93417805215422
N         4.37126349830416    3.54106206409760    0.48966602345599
N         4.28913966297350    2.61896710292037    1.39373105527400
N         3.26421930865493    4.41991079587391    2.14289126388877
C         3.60395558572413    3.15335065360941    2.42328472194009
C         3.28974966393796    2.45270217364037    3.64695917463993
C         2.57369302173454    3.08448424758988    4.66226457633013
H         2.24979577144726    4.10595309624926    4.53055128974962
C         2.27940775597884    2.40745258015454    5.82801485519878
H         1.72532235464110    2.88921110497251    6.61825156753024
C         2.70312413741145    1.09449234318904    5.97652511392788
C         3.41612889887580    0.45240848653563    4.97415009964561
H         3.73720366174053   -0.56856521617786    5.10753539734933
C         3.70869127165624    1.13296119760190    3.81001500200462
H         4.26172726889329    0.65534474838926    3.01646738606531
C         1.89495950214596    4.69782059908877   -1.62828683538410
H         1.82050678573604    3.81487208753899   -0.98882324434197
H         1.55127997011735    4.43076611957455   -2.63099148513134
C         1.05983036649531    5.83026023215541   -1.04487345438832
H         0.02116964151898    5.52203885726362   -0.89929172411100
H         1.07555581035570    6.68740641653020   -1.72236804239139
Br        5.00449123666859   12.19649334183644   -7.58476708866407
N         4.00464723053634    7.20475060945262    1.63432847382411
H         3.84161261750613    6.59470351340261    2.44332793287070
H         3.39856119845670    8.02302392221459    1.73308717054178
N         5.60553104933750    6.13256884791415   -0.22669477090959
H         5.88030866537070    6.78822106522061   -0.96437404549075
H         5.95719317285246    5.21070497069198   -0.49675059001861
N         3.54050368629242    7.74911408785005   -0.93417766775646
N         2.93093198877246    8.81706420406178   -0.48965597325652
N         3.01306667836759    9.73914022251691   -1.39373286067466
N         4.03788066094345    7.93814247033386   -2.14290522588113
C         3.69820904819384    9.20471809065443   -2.42329720137953
C         4.01242922867697    9.90534541137402   -3.64697926202902
C         4.72841592907693    9.27351462422307   -4.66230545864058
H         5.05223088121867    8.25201742797116   -4.53061041398993
C         5.02272160352758    9.95052683097261   -5.82806001497243
H         5.57675004144918    9.46872934357922   -6.61831337789829
C         4.59909644493625   11.26351671725325   -5.97655438608497
C         3.88616032957081   11.90564823713072   -4.97415964731624
H         3.56516239598159   12.92664721133731   -5.10752965622743
C         3.59357476372955   11.22511414116414   -3.81002139896287
H         3.04059269841723   11.70276903541091   -3.01645829373240
C         5.40715725551168    7.66028283062895    1.62830981350788
H         5.48161042066917    8.54323101467058    0.98884561459014
H         5.75083680894005    7.92733856153588    2.63101421928633
C         6.24228633913802    6.52784172313677    1.04489928691246
H         7.28094721285059    6.83606306192158    0.89931866191283
H         6.22656057076363    5.67069567831253    1.72239417554326

