81
CSD_code = QOQGEK | q = 0 | S = 0 | Stoichiometry = C33H40N5PSiZn | MND = 4
C         0.82360103668834    2.29715262357597   12.34735951521204
C         2.84945870090014    0.15826946415956   11.87827697972180
H         3.66917218849031    0.26656460618228   12.58890856750216
H         3.05512033511639   -0.70159270699434   11.24497355759219
H         1.93210964147010   -0.00437887688150   12.43923949437412
C         2.72080142645573    1.38669994236506   11.05553687272232
C         3.45779851901918    1.81158152068804    9.96485559240565
H         4.26765828077453    1.29447014009643    9.49190567374611
C         2.92297339908805    3.05238837717572    9.60863270042545
C         3.32004413049870    3.93474881254711    8.48108898052396
H         2.64202693795632    4.78099057256177    8.42405075799118
H         3.29068409399835    3.38049812117756    7.54402928659797
H         4.33601633116786    4.30156166991214    8.62275399981479
C        -1.46897143783146    0.36532436068305   12.42004137412217
H        -0.47280447211769   -0.04654338395099   12.27841075435276
H        -2.19966708243793   -0.26987182527309   11.92592204182921
H        -1.68781368472527    0.37886116868236   13.48757697983714
C        -1.53796260224877    1.74007045269876   11.86411564465979
C        -2.60752401307291    2.41041283019446   11.30121091300282
H        -3.60227658172408    2.03803977272799   11.16356686244646
C        -2.11734162899991    3.67038101547934   10.94501181383000
C        -2.84075724882298    4.79821622174392   10.30231108987600
H        -2.13741039078666    5.58818384346010   10.05103807986531
H        -3.59545655316143    5.19631818944749   10.97961933289225
H        -3.34238557480560    4.45972409367921    9.39746840036689
C         2.92843681281054    3.00091856513108   14.08597674887436
C         3.96057736251715    3.48922005692256   13.29176227594633
H         3.72730084377110    4.16713554180080   12.48089620752758
C         5.26898364104899    3.12471024887939   13.54618750417390
H         6.06546178265237    3.50313762141510   12.92256128294499
C         5.55498151117375    2.27707192982535   14.60424023628815
H         6.57633825863487    1.98952164961748   14.80622277205847
C         4.53180192958290    1.80789290663798   15.41179883892217
H         4.75693769828250    1.15952281390117   16.24635869372295
C         3.21965674701275    2.16600285243424   15.15626323219034
H         2.42663508391638    1.80833673352765   15.79640136935021
C         0.07719481803379    3.12754197975029   14.92077988281379
C        -0.10590691014260    1.80249051139268   15.30277811821214
H         0.48336222501635    1.03300645286205   14.82523432586369
C        -1.04629937561361    1.48410475468141   16.26483365247950
H        -1.18451399311349    0.45520621245503   16.56603417660859
C        -1.81648718566252    2.48346785011600   16.83873695978070
H        -2.55096992984037    2.23325764771542   17.59017848039002
C        -1.65261375058077    3.80025870158795   16.44163022470714
H        -2.26240879501019    4.57692631636499   16.87929877796198
C        -0.71019297296430    4.12417983108573   15.48161709156852
H        -0.58425138387004    5.14850620473280   15.16170656147808
C         1.49780402813204    6.10025822140669   13.98079886491941
C         1.21656159335043    7.40705016859878   13.57657757945288
H         0.75937311702841    7.56324974678977   12.61161599290234
C         1.51254684025376    8.47547985146108   14.39833101247394
H         1.28627919608924    9.47983043329847   14.06866611710664
C         2.08962295932136    8.27254140156874   15.64182552064144
H         2.32076016481867    9.11129142847273   16.28123089482643
C         2.36025255580949    6.98021587177563   16.05821964779423
H         2.80244778523005    6.80337702753864   17.02871712913712
C         2.06673842095561    5.90702565254167   15.24102242288163
H         2.27273830359038    4.89687323761479   15.57781520944403
C         0.81444885443020    6.67448932964095    9.86404933347241
H         0.60081657367828    6.33901239265997    8.84882130491872
H        -0.01688244062288    7.32794279989987   10.12753994482249
C         3.07601167238231    7.87984909374170    8.05373104589255
H         3.36495071878654    6.92209449418643    7.63368515787653
H         3.94944286824386    8.52419174494597    8.02634083233690
H         2.33065349079448    8.31403587043518    7.39465024619246
C         2.07069122644549    9.49726278110423   10.45842564345869
H         1.26751620346661    9.96709801285991    9.89877907977170
H         2.95418522459542   10.11841076819118   10.34573682617311
H         1.79544795201987    9.51130687152144   11.50724282685969
C         3.77322621871624    6.95621841222460   10.93200770410236
H         3.48582993948244    6.97349307367503   11.97918984256953
H         4.70927753790122    7.49957617959162   10.84123830635660
H         3.96522321773751    5.92336888005603   10.65681942837739
N         1.93517871438862    3.36353316290209   10.44070580508922
N         1.80931292087472    2.34251183979204   11.30628070864199
N        -0.83685885777218    3.75318642816422   11.27658972740553
N        -0.48743464125300    2.58029599554040   11.83672947601807
N         1.18655651753240    5.05383276717578   13.12122940197379
P         1.24658124849003    3.50669565584897   13.58383187941346
Si        2.40231847026364    7.71791826616621    9.84006418311329
Zn        0.79646323629057    5.05889374963528   11.06208822400947

