118
CSD_code = QOQHEJ | q = 0 | S = 0 | Stoichiometry = C53H59N5Ni | MND = 4
Ni       13.11079223864552    8.86545643695098   11.60880187492424
N        13.58142493452885    8.29606391139833   13.35826172360226
N        14.79200734617571    9.74296750764555   11.44523790484934
N        12.77920541896323    9.07911271038107    9.74169992629278
N        11.29842736133498    8.34530913613585   11.89466029651144
C        12.83083732520709    7.45354635228879   14.12565472949087
C        13.69713190981612    6.63386351847590   14.93132300746684
C        14.97468046350075    7.07664275827066   14.71085845338000
C        14.87640120896971    8.19313565962392   13.79973756956022
C        15.79512902904695    9.22745041219307   13.56750597685170
C        15.58485400102665   10.11200643440867   12.50527552163609
C        16.25745907834585   11.34980054523106   12.17965146292801
C        15.96156321750517   11.62755195465316   10.87200337724444
C        15.11061549989477   10.56416466556122   10.40529141989271
C        14.78506580432828   10.24043887097901    9.07907663259697
C        13.74824720262724    9.35303138347607    8.80747575149010
C        13.36651298856376    8.78342849083020    7.53536313269078
C        12.10074140484133    8.29203665852899    7.69230513396958
C        11.72690202393706    8.54672530483568    9.06097680928403
C        10.44894132735761    8.45548199134912    9.63459215988012
C        10.27026632292032    8.54596120252354   11.02518077908115
C         9.03051951403996    8.67872457016390   11.74651471356676
C         9.31768510172597    8.44708801795042   13.06286715378310
C        10.73112211830634    8.15378780015233   13.13160321955179
C        11.43202667285427    7.54395117321045   14.16876497947443
C        13.31370785635434    5.45128253762433   15.76335472986626
H        13.94351417636173    4.60441150692686   15.47368567872894
H        12.28112296940695    5.17114077307763   15.56265099787530
C        13.48519696489904    5.70306464960099   17.26281357255454
H        14.51203387502374    5.97148726585985   17.49859996328457
H        13.22241322235469    4.80862182661531   17.82338019574565
H        12.83733832933956    6.51242081838390   17.58691135478063
C        16.21397020023996    6.37185471244510   15.16718358663886
H        15.92313367817660    5.50325191478907   15.75876917539556
H        16.82813334584252    7.00063638674859   15.81329546972573
C        17.02919663463117    5.88072152692963   13.96763555899325
H        16.44062132535159    5.17451464515541   13.38608845179930
H        17.93500299662718    5.38022212824128   14.30417533892422
H        17.30638636770389    6.70166902895854   13.31076604584300
C        16.95175852881464    9.40697866724063   14.50643310758835
H        17.65865375113457   10.11998906805926   14.09781039489738
H        17.48793527972772    8.46888568150643   14.62399854801579
C        16.46917264927304    9.88701858646100   15.88183310481660
H        15.79358809409367    9.14308250230514   16.30919325312367
H        15.89566402957581   10.80983826945704   15.76371427021312
C        17.63438640292108   10.13181283963796   16.83652444864455
H        18.20800498946056    9.20899083920380   16.95369992761245
H        18.30350706601834   10.88220288809028   16.40848442128914
C        17.15224538642157   10.60415520986818   18.20251857900392
H        16.59641277360850   11.53475213320587   18.10970577467916
H        17.99423894000957   10.77251946937922   18.86981707147308
H        16.49893359858233    9.86066155027955   18.65426256858126
C        17.03836932419749   12.26420299447667   13.07392731972919
H        16.84251993725507   12.04061138228876   14.12080275889402
H        16.68853074748777   13.28567628113066   12.89884616629072
C        18.54493043947819   12.22109234784586   12.79654952477084
H        18.95029954536112   11.22180977750618   12.94249329453811
H        19.06825032609983   12.90422411399038   13.46252967049155
H        18.75260485465555   12.51207792583469   11.76982594820140
C        16.27644076344163   12.88949968380506   10.13523719731501
H        16.74641581827585   12.67921104854510    9.17498433404792
H        16.97507690684994   13.48849210823822   10.71954921054075
C        14.99986732365461   13.70235337034216    9.90737616708925
H        14.28331530249041   13.13331475666111    9.32157633998833
H        15.22888102705051   14.62360198203775    9.37633144081177
H        14.53754094599706   13.95444164981189   10.85963000659973
C        15.56218445518482   10.84204892937077    7.98032925720638
C        14.94998745396046   11.67476525177207    7.04772195517307
H        13.88983033827484   11.86962959486850    7.12621594091961
C        15.69114581489284   12.24794977031406    6.03013770345553
H        15.20899820879715   12.90031965668585    5.31689896950638
C        17.04612291878533   11.98161128004275    5.92102403829786
H        17.62198795893048   12.42436275927158    5.12195347658791
C        17.66063704823295   11.14638526701663    6.83930891513103
H        18.71665713767450   10.93473652137138    6.75610997414252
C        16.92607919610458   10.58645030272451    7.86885591153200
H        17.40561132005232    9.94744672473314    8.59679694556847
C        14.23713943200612    8.60129983486715    6.33537923765238
H        14.65302299463931    9.55025445859682    5.99868465418771
H        13.63766504594033    8.19536318254690    5.51975231608956
C        15.37927674116721    7.63181680876627    6.64705597234069
H        16.00318533550518    8.02085769578295    7.44740327010711
H        15.99881663085028    7.48394803676941    5.76537631107245
H        14.98204184702310    6.66823996690448    6.95952848967827
C        11.28895027003585    7.59138410198767    6.65268170410838
H        11.94390701619362    6.92478010386435    6.08526633602433
H        10.52206114844423    6.97670181888054    7.12321054147874
C        10.62719982278592    8.58048335266963    5.69008747068780
H         9.91433317634042    9.20560679535345    6.22101460104236
H        10.09368895043274    8.04250794855805    4.91045947822244
H        11.37439640561185    9.22124703437675    5.22642985867111
C         9.33033331461626    8.27158165624321    8.80621561822100
N         8.41385614398366    8.11968185534861    8.12771191616214
C         7.69582385111304    9.04557273380786   11.18494907801107
H         7.81505825683659    9.54618894633006   10.22439307695807
H         7.21000268943770    9.74975394227053   11.86564914231380
C         6.79745051748513    7.81881464175862   11.00968682703877
H         7.22304783521546    7.14011623996894   10.27556062744238
H         5.81359633832773    8.12353422499900   10.66166846803641
H         6.68735207985246    7.28683085829837   11.95238876405603
C         8.37872112838878    8.64052855264164   14.20848758213687
H         8.38526995063313    7.78227379681452   14.87855636134599
H         7.36456634595085    8.75019089390985   13.82296450925749
C         8.75320864984164    9.89945345057811   14.99397076196817
H         9.76229875486939    9.81655138122007   15.38873362698916
H         8.06613254569759   10.04397616736339   15.82465966457334
H         8.70926850910707   10.77436911253526   14.34861545685999
C        10.69438428889970    6.97861010696165   15.31529811350192
C        10.80184998573722    7.55413957022622   16.57585144199016
H        11.44164895067098    8.41478603645019   16.71172566825661
C        10.08149742896999    7.04126482108438   17.64124334473621
H        10.16074914524260    7.50286531005502   18.61486288654779
C         9.26614305196254    5.93756271410839   17.46302815123600
H         8.70997470919108    5.53473758830638   18.29635080620893
C         9.16263670051756    5.35071698738791   16.21150923233180
H         8.52781571529741    4.48847294796908   16.06890858715208
C         9.86365559000062    5.87302090884655   15.14073922005339
H         9.77745464554460    5.42798304065731   14.15963905829720

