41
CSD_code = QOQKOW | q = 0 | S = 0 | Stoichiometry = C16H22Cl2Ti | MND = 12
Ti       -1.97017216199698    2.19529302612247    3.42757004189101
Cl       -3.15862766542434    0.60778994825343    2.38792851442975
C        -2.73167405782923    2.34517419668060    5.71919239937884
C        -2.27150753080011    3.61441089375812    5.28227390687919
C        -3.13733119918067    4.04855151364852    4.24142857897789
H        -3.16875202583798    5.04841880497827    3.82932791020268
C        -4.08560649596116    3.03482068199432    3.98936324671402
C        -3.82108905245055    1.97963100822114    4.90204392920775
H        -4.42311460721881    1.08679310270288    5.02028507552134
C        -2.27056578539121    1.62061978113811    6.94386993111748
H        -2.70630371919427    2.09320558051189    7.82787674002045
H        -1.18635478405168    1.65056999505696    7.03992554298439
H        -2.58711794222568    0.57983243397752    6.91495327887864
C        -1.24591459668903    4.43842945654942    6.00091746791670
H        -0.99608311340784    5.33810271988505    5.44136623424846
H        -0.33686601011311    3.86311205124708    6.17785257617132
H        -1.63815160476796    4.74450763441940    6.97348951295018
C        -5.26770989985614    3.11759585723431    3.07275840087398
H        -6.18916137093208    3.04893125121968    3.65355849512626
H        -5.26297141729329    2.29169126778804    2.35917837580307
H        -5.27218590142589    4.06225825889897    2.53167504983043
Cl       -0.78193153436432    0.60825756720758    4.46790506854417
C        -1.20861657145047    2.34526045508718    1.13598730902394
C        -1.66879103664254    3.61448353283511    1.57292605450219
C        -0.80297663345688    4.04860260035696    2.61378841519766
C        -2.69443465264147    4.43846192295546    0.85431404607865
H        -2.94437343431764    5.33808534920093    1.41390869721495
H        -3.60342841008745    3.86307025239384    0.67734799328924
H        -2.30220159528138    4.74460718986039   -0.11824335459180
H        -0.77157032141265    5.04845836809642    3.02592073603868
C         0.14529149433532    3.03486329706367    2.86584893835605
C        -0.11923818318884    1.97967335993788    1.95316955475051
C        -1.66982251396183    1.62069273070101   -0.08864260882371
H        -1.23420569913281    2.09328917191720   -0.97269536105875
H        -2.75404428706907    1.65059646416249   -0.18457154982986
H        -1.35324958248333    0.57991950893049   -0.05975474796622
C         1.32743678493133    3.11765052923272    3.78240309171257
H         2.24886813861290    3.04908140532723    3.20155857217284
H         1.32278122431775    2.29169496865140    4.49592528598514
H         1.33189473133009    4.06228475293363    4.32353843837151
H         0.48277302401649    1.08682710886996    1.83493021191258

