121
CSD_code = QOQLEP | q = 0 | S = 0 | Stoichiometry = C63H51Cl2OOsP3 | MND = 6
Os        2.37187710325258    1.83420814904831   11.36603768132835
Cl        2.49296573732409   -0.09248205213330   12.78732360937789
Cl        1.95630989071987    0.46484335795160    9.46711880823721
P        -0.09752995076620    4.50719390836129    8.71627340521878
P         2.42423598274040    2.81110977440047   13.48804782014473
P         4.55560888068787    1.89066890235383   10.65710771867065
O         0.20736327057991    1.76490438207409   11.55394068401443
C         1.85667436261831    3.36273141490874   10.25831599637366
H         2.46113819453927    4.13457807174964    9.76834460957254
C         0.49115975040640    3.37717137145352    9.94189942764110
C        -0.32792922277125    2.43421604285879   10.64495473245514
C        -3.55028791983205    1.94152094000701    8.77687484539819
H        -3.89117519669751    1.84905541016505    7.75585053056391
C        -1.75959361752407    2.24701340630534   10.35064582466627
C        -4.45558260443900    1.85268835988586    9.82095826289211
H        -5.50521835523457    1.70416368559010    9.61410975189124
C        -2.20715685036575    2.14064891350218    9.03708029233900
H        -1.49413844189008    2.16741402863833    8.22297637625179
C        -4.01006596040224    1.93117777920238   11.13102409522346
H        -4.71262593793056    1.84111750333037   11.94650837434807
C        -2.66727181765160    2.11278967551173   11.39821082304289
H        -2.30468758447018    2.16025616342326   12.41405128172253
C        -1.83268655912089    4.99338459650648    8.91906817124127
C        -2.71486824219958    5.09034799132179    7.85130137378760
H        -2.38036576995467    4.86467962127994    6.84913974381898
C        -4.03011665645345    5.45251380295762    8.08212846224524
H        -4.71872593117604    5.52399725427416    7.25353596947223
C        -4.46663307720971    5.71342519460983    9.37020487841757
H        -5.49620702067645    5.98640155338178    9.54536351967401
C        -3.58702905773773    5.61434448874449   10.43692392208639
H        -3.93001210780799    5.80828941969437   11.44202746464210
C        -2.27180889705198    5.25567334247131   10.21543307618857
H        -1.58359435430092    5.14936039552285   11.04438472433847
C         0.23991901845744    3.90193842121891    7.04121792558617
C         0.73352529048864    2.61213658722609    6.87307071051352
H         0.90686016972623    1.96666304201174    7.72788076372219
C         1.03473849806248    2.16344238925567    5.59799517660505
H         1.42086287097411    1.16404148205180    5.46863703479479
C         0.84808659825235    2.99233588874505    4.50402791313489
H         1.08232025084447    2.63784539562229    3.51103505537023
C         0.37518308464479    4.28536314787064    4.67788424032602
H         0.24565524432259    4.93445982466963    3.82422747278338
C         0.07701925660737    4.74759137862996    5.94551488454995
H        -0.26688989384108    5.76331995491341    6.09529723747910
C         0.85763191657903    6.04743104622905    8.82012164289252
C         0.38692272883074    7.15794625109042    9.51298133583017
H        -0.59864727627037    7.14441002540500    9.95637780390292
C         1.17938086025467    8.28676050815689    9.62267027810558
H         0.80696565068053    9.15194584882332   10.15189136629312
C         2.44580747929693    8.30835881283529    9.05903108212414
H         3.06318496120381    9.18894535246712    9.15546379584565
C         2.91712699019886    7.20250299470092    8.37077204734291
H         3.90266925595308    7.21228980169152    7.93111532153380
C         2.12624399105601    6.07535179651034    8.24279061098806
H         2.48974845109003    5.21920066532726    7.69047822998605
C         2.79366560496412    4.60565198765261   13.69271300881192
C         2.35282061846772    5.47060203699609   12.69353080450310
H         1.83467288586452    5.05517116725874   11.83751663860412
C         2.59087740457890    6.82951172450705   12.77071591053626
H         2.24121491082589    7.48290838431745   11.98365966934092
C         3.28509947693731    7.34702832511229   13.85230082192872
H         3.47556343823810    8.40841835985527   13.91724595493761
C         3.74175197722122    6.49508105532394   14.84300145091604
H         4.29225633830887    6.89192519764546   15.68414518629502
C         3.50211646163773    5.13344677187480   14.76545631367678
H         3.87848685931257    4.48307043149514   15.54056524868168
C         0.71600331914788    2.77170772316829   14.15060858033460
C         0.24704402080300    1.56874256393085   14.67454006967332
H         0.90938044022886    0.71569795054179   14.72221706617575
C        -1.05940032263308    1.46120996256487   15.11165259681598
H        -1.41471895203972    0.52339763735619   15.51316348084893
C        -1.91433001726253    2.54879128446150   15.02766201261894
H        -2.93709583593979    2.46416131864321   15.36703023756383
C        -1.45644033891579    3.74388850408576   14.49772865946644
H        -2.12199706464244    4.59352884024139   14.42348956087322
C        -0.14943146780762    3.85640162973627   14.05637292262413
H         0.19666669065602    4.79523885605604   13.64525638537645
C         3.34255239311546    2.11044669839143   14.90260724423756
C         2.90571724185693    2.33306518930249   16.20686864121718
H         2.00267591844419    2.90237396000446   16.38586974667140
C         3.62063146444449    1.82147150435999   17.27429522182693
H         3.27131725631310    1.99104934808273   18.28308699406645
C         4.77700822221399    1.09134272593409   17.05270152239089
H         5.33006007841993    0.69073224553737   17.88999690219017
C         5.21333235890205    0.86718871336116   15.75787210477407
H         6.10825082712414    0.28993161066133   15.57825269769116
C         4.49768900093691    1.37136633362809   14.68748957522861
H         4.81156580108636    1.16420460653377   13.67560708663427
C         5.85385378526656    2.46805128731457   11.80719224584677
C         5.65021640915055    3.70572258149012   12.41311870682618
H         4.78100718193490    4.28462360896450   12.12878261856762
C         6.53801668932265    4.17978573891355   13.35885364865696
H         6.36971716861456    5.14209271358316   13.82084904349228
C         7.63601053900393    3.41371335119565   13.71840446407889
H         8.32707773141374    3.77589213346825   14.46547896055057
C         7.84328927120285    2.18157224247629   13.12217848139592
H         8.69769006581422    1.58313710548636   13.40385933285284
C         6.95832720898922    1.70599442575140   12.16931531820279
H         7.11953037814267    0.73842672142936   11.71626963846489
C         4.82770533567569    2.99341428993501    9.21282402394679
C         4.14898197132720    2.64865475088405    8.04409371474093
H         3.51029961655477    1.77529837086312    8.05190569653611
C         4.28769528180564    3.41416818732909    6.90209603523549
H         3.75877636771306    3.13806252215578    6.00018377173426
C         5.10704457149809    4.53382911204853    6.91073573154049
H         5.22155287113524    5.12965755568808    6.01584107817838
C         5.77956889905158    4.88214175197725    8.06912691759250
H         6.42511989331085    5.74955029523447    8.08091644475755
C         5.64167967374349    4.11868306899525    9.21740751551491
H         6.18208030743612    4.39816120388746   10.10975822644365
C         5.32108388877423    0.36702703748004    9.99260091915195
C         6.36941050975561    0.44275810389859    9.07702961213135
H         6.72610318009358    1.40746903036354    8.74237602067521
C         6.95406061276152   -0.71421061927900    8.59807401685188
H         7.76471059015128   -0.65002621669166    7.88577394016020
C         6.50210893939469   -1.95283443449725    9.02630177480920
H         6.95694285809867   -2.85476244518446    8.64198339407736
C         5.47037344825198   -2.03117454946702    9.94551225419353
H         5.11777360081304   -2.99429202277911   10.28413462058766
C         4.88191983725331   -0.87636719727873   10.43186411805084
H         4.07592686910503   -0.93896181905440   11.14998920963729

