69
CSD_code = QOQMOZ | q = 0 | S = 0 | Stoichiometry = C29H35I2IrN2 | MND = 8
C        -0.03845226505519    4.37533962890148   20.23491155650433
C         0.60763472170993    4.32331457980913   18.08780555820047
C         1.61698605511287    4.86492556678669   18.79846357668239
C         2.03049800360812    5.55934264339422   21.09322298036212
C         2.48386271719658    6.91000027708732   20.59836337538086
C         1.55095970864945    7.82832527909307   20.13254828844526
C         1.96243728726237    9.06665871184196   19.67629058173092
C         3.30691896866013    9.39933859338562   19.68104775028370
C         4.23972528239435    8.48934658203532   20.14672998856745
C         3.82955348565898    7.24767227311926   20.60062000066709
C        -1.65127703897777    3.60710366738262   18.44849291970855
C        -1.85211212815544    2.26601712128750   18.14432434682701
C        -3.06310878462661    1.89490080753313   17.57896179055493
C        -4.04450511631618    2.83198689904599   17.29728206693254
C        -3.79441324021325    4.17037159779239   17.57193784655210
C        -2.60466800704738    4.58131233620964   18.14622970067257
C        -0.78054313315425    1.25099121640682   18.40461580284111
C        -5.36441299705849    2.41605206840085   16.72850541877490
C        -2.34951718274879    6.01603907470890   18.47958002225780
C        -0.57736422724481    3.41579004588145   24.32756821839956
C        -1.28979192333984    2.36175010518336   23.74202799549498
C        -0.47877141569115    1.80662388139311   22.68205535960420
C         0.78194480072055    2.47493622682192   22.70219286164659
C         0.71000440290120    3.50887512124721   23.67935884089009
C        -0.97853302103503    4.17841129706378   25.54666258406217
C        -2.55494400879894    1.76644262321811   24.26236772665752
C        -0.78990432492480    0.52107402738626   21.98655576821179
C         1.99744111646778    2.02324866880282   21.95288079597876
C         1.83606613883093    4.30920643043227   24.25098609174298
Ir       -0.86863613584008    3.92168331036516   22.08381396713536
I        -3.41612024112168    3.51611373645123   21.31302044921201
I        -1.25789738944201    6.54101822855514   22.59850296966377
N        -0.39734652569581    4.03666129751329   18.97175851866928
N         1.20834427910351    4.90203130172489   20.10341790427050
H         0.50486446957916    4.12460722883241   17.04120271825988
H         2.57357654069072    5.23595398768497   18.49445703473960
H         1.44522923278435    5.68676869773890   22.00338307683041
H         2.90352067376411    4.93597230700833   21.31154451339835
H         0.50140573068346    7.57879138442006   20.14052255748546
H         1.22943324468659    9.77491550055387   19.32181193099453
H         3.62739344136541   10.36722200211243   19.32584866379232
H         5.28933896346959    8.74363540415915   20.15598412543084
H         4.56263729581897    6.53988318109131   20.96335681904750
H        -3.24088955537710    0.85211290898230   17.36003069822182
H        -4.55227349735895    4.90651532872887   17.35119661392426
H        -1.21643433919167    0.26768393514887   18.56013122732228
H        -0.19587552644171    1.52167138670986   19.28021978241969
H        -0.10278188500451    1.19067936114394   17.55126863008714
H        -6.11082828315677    2.40947894104171   17.52229570180982
H        -5.31138015989603    1.41870278189232   16.29941598320411
H        -5.69478488872381    3.11598861831490   15.96413790830328
H        -3.17269779110817    6.63838246227906   18.14310587665206
H        -2.25450569666484    6.13114403290677   19.55917595497002
H        -1.42721002979812    6.37157760891947   18.01926522812173
H        -0.54043956124413    5.17441853548582   25.55681011764430
H        -0.63981350793701    3.64734846530528   26.43955278444210
H        -2.06063501466291    4.28114172791228   25.60482538323823
H        -3.05302515082269    1.16564274259567   23.50567855880783
H        -2.32288087789637    1.12568345017499   25.11673832239162
H        -3.24937704316518    2.53511923418084   24.59705256528372
H        -0.01674362460000    0.26372668801299   21.26622713472661
H        -0.85443937268642   -0.28394522095275   22.72175511076648
H        -1.74690099812395    0.57284286828007   21.46740031875380
H         2.82270595706333    2.72051839171481   22.07602541415590
H         2.31808650103409    1.05303388315006   22.33791386215944
H         1.80370841480273    1.90895504438638   20.88571331392954
H         2.73684197471484    4.24368338671237   23.64548558277830
H         2.07028216040908    3.92733760632216   25.24726516163376
H         1.56813434120602    5.36030091079202   24.36279770068786

