69
CSD_code = QOQQUJ | q = 0 | S = 0 | Stoichiometry = C26H30FeN6O6 | MND = 6
Fe        6.61524149228609    1.67251830508687   16.10028809922412
O         8.53385388870405    1.46036712773773   16.43807124152469
O         6.26693869092919   -0.09103880284048   16.87982067824146
O        11.61502966855362    4.03028637768967   15.27484782810618
O        10.09429764901195    5.46063936587676   14.47723025652852
O         1.54993067567797   -0.20681964919696   16.65546811546524
O         2.63580917232787   -1.93104605754662   17.56525258811754
N         6.87031456184094    3.38922971892816   15.31516037691206
N         4.76634564295296    1.96692831292275   15.76584524927769
N         6.41523780867708    2.48293886957730   17.86788497507560
N         5.88091501142952    3.71453045956517   19.60214563424731
H         5.46789896830440    4.44828535518394   20.15361750012747
N         6.82276920621709    0.82809704601109   14.30507422308506
N         7.69070994846421    0.17163641228800   12.40210588377420
H         8.32814474707236    0.09436567422506   11.62675860808501
C         9.46981813428080    2.23870724355850   16.15828878016566
C         9.29317460298389    3.47893563240512   15.46302752609281
C         8.02190000443386    3.96356820083937   15.09390657312977
H         8.04616066962037    4.91290152303493   14.56810802112650
C         5.67695979381078    3.97238494141889   14.91341637345768
C         5.52863576895763    5.23311643458110   14.33437738648350
H         6.38810527792295    5.86272734409884   14.16256196843039
C         4.28081478019535    5.70427462389716   13.97280358593836
H         4.18730755969316    6.68249017738287   13.52470195616018
C         3.15501084137386    4.92387452791220   14.18201275865494
H         2.18087703703849    5.28868255307463   13.89217150356443
C         3.27375421264991    3.67742821404676   14.76639922923903
H         2.38261117606578    3.08932394056300   14.91986568661796
C         4.52124401048404    3.18491897055731   15.15069319457945
C         3.79918962985386    1.16377721279096   16.11327598177096
H         2.76539287120473    1.44690554350428   15.92510544981328
C         3.91252092186287   -0.09864973275316   16.73241801914489
C         5.17642872115985   -0.66820564248531   17.07765176542251
C        10.84782402429525    1.80464337884634   16.59299105853737
H        10.75940625279570    0.86132244992542   17.12674191968637
H        11.30058756916655    2.55674139285238   17.23335251343639
H        11.50130767239855    1.68576918833703   15.73279293147501
C        10.44178570416709    4.29442395614378   15.09670795848231
C        11.17865257327576    6.29467317914511   14.08978767191888
H        11.83849730531902    5.73580300485474   13.41515010591632
H        11.76075352317929    6.56304329600970   14.97948103299225
C        10.61322003576375    7.52829736015296   13.40943259397553
H        10.03733664485966    7.24180332242535   12.53313936346599
H        11.42472445217976    8.18240102489802   13.10346999057899
H         9.96102960685212    8.06593742073607   14.09276368104258
C         5.27248982975446   -2.03613661755234   17.71339618117630
H         6.32550226830971   -2.26602565605618   17.85963540534593
H         4.81714808583613   -2.79036705741213   17.07815446786425
H         4.75794365966643   -2.05103723055301   18.66992359541900
C         2.61179722149894   -0.71853395190915   16.96662320644637
C         1.36495252708816   -2.53106202909745   17.78876139459430
H         0.75826226216547   -1.86506078568630   18.41384639276042
H         0.84916764913510   -2.64760104012156   16.82812033279211
C         1.58249103528942   -3.87331846649947   18.46329188872422
H         2.18736421811670   -4.51702672505131   17.83027216767940
H         0.62425397928441   -4.35170571718460   18.64486809739464
H         2.09741015634788   -3.73712597595928   19.41052090409971
C         7.00017184112665    1.95292054217000   18.97724779535902
H         7.60380276177179    1.07411765268524   18.89514115423522
C         6.67762399521056    2.70686466057899   20.06449459408498
H         6.94051628378750    2.61397647446874   21.09771068567603
C         5.74875388977871    3.54016400460529   18.26827641883944
H         5.17385102132956    4.18607853956641   17.63684051240327
C         6.00395744076649   -0.10755988054478   13.75043191789303
H         5.10131104284186   -0.41222016207117   14.23741911791941
C         6.53012233074536   -0.52721329281755   12.56571333586698
H         6.18433959663909   -1.24222223708277   11.84855675346516
C         7.82728753881495    0.97755444013271   13.47601725205447
H         8.65101085440015    1.64540131312852   13.62286858881164

