39
CSD_code = QOQYUQ | q = 1 | S = 0 | Stoichiometry = C8H22N5NiO3(1+) | MND = 6
Ni        1.04316870380045   -4.97083815676241   12.77176894769102
O         1.22296745056529   -6.18078895050811   14.13153082544396
O         0.66689671238657   -7.21305452817861   12.36810528639090
O         0.96013544639636   -8.30548873315252   14.19426212880735
N         0.85183448061641   -3.83508700336739   11.25936035320989
N         1.71095688144069   -3.37266777742379   14.12534863024424
H         1.50376241241532   -3.73451160401857   15.05548514153538
H         2.72423174356358   -3.27701402130086   14.07384155607116
N        -1.14460732342354   -4.95540401169271   13.14853558848884
H        -1.31026433935021   -5.59062928404186   13.92953357495162
H        -1.52078042218450   -4.05124198347901   13.43285843136956
N         2.98798970645490   -5.61517093713621   11.88436226017627
H         3.78298552505904   -5.17865468163250   12.34885589580972
H         3.15829375465947   -6.61869554815038   11.89007104927197
N         0.94403351730361   -7.29676616802567   13.56714191063276
C         0.39596235403370   -2.44945001341706   11.50325282940229
H        -0.62387045039350   -2.48746820730609   11.88289886971221
H         0.37741417971805   -1.92469242880085   10.53939959970820
C         1.20390953063082   -1.59923763480653   12.48967577523202
H         0.80638620188692   -0.58541299107900   12.42348956368160
H         2.25642812069759   -1.54319690321969   12.21208617573538
C         1.08944916406614   -2.05854192134811   13.94230645087078
H         1.55890077746824   -1.30346182424442   14.58519590376456
H         0.03704248880473   -2.13157509713683   14.22530738348774
C        -0.10833932096534   -4.53733735251101   10.36472055563894
H         0.22093132284805   -5.57762160037498   10.28750955142575
H        -0.04209401298951   -4.07791404051978    9.37076037263257
C        -1.58890198363656   -4.56638766329649   10.75593913389981
H        -1.99209808506526   -3.56400032309477   10.90342709803587
H        -2.12114561715907   -4.99574529332767    9.90592665926832
C        -1.88118702354497   -5.43984781395386   11.97235392123259
H        -2.96229482688783   -5.44739360573723   12.15644143053526
H        -1.55577205836440   -6.46297441642230   11.76906428909366
C         2.16008727172793   -3.77680000324730   10.55820558745229
H         2.80838939075986   -3.09105061423056   11.10467404864761
H         2.02230124512539   -3.38106801689771    9.54524929979668
C         2.86641008514485   -5.12894227847568   10.50581521783840
H         2.29083115363743   -5.85625662246724    9.93154006587331
H         3.83945584275358   -5.00510994521364   10.01469863693899

