40
CSD_code = QOQYOK | q = 0 | S = 0 | Stoichiometry = C7H20N6NiO6 | MND = 6
Ni        2.76338519055845    6.56616485546535    9.26154958209647
C         3.00704545088140    3.61642994092254    8.50237862168504
C         1.56112224135820    3.51440536144219    9.00022847325437
C         1.33861502273326    4.23919418210996   10.32890195792406
C         2.68893926485139    4.92580678476835    6.50686579370233
C         2.06188914224234    6.28787017040333    6.14322090497188
C         4.74680366663298    5.13968675057905    7.79075893697091
C         5.03322559412502    6.61662782866545    7.51940221717875
N         3.29905621756373    4.89197786387494    7.84111124923696
N         1.41857448569354    5.69440473078317   10.23044104696674
N         1.44870175850409    6.87926849610703    7.32105449404216
N         4.29350159141778    7.41179050076819    8.50080195439263
N         0.93828645097657    8.85772184439963    9.83436272408743
N         4.12399851565959    5.83717504705162   12.00711259876556
O         2.15037696257970    8.49852778634481    9.88748917825983
O         0.65936637166915   10.00327556014656   10.07871227519945
O         0.09915370638600    8.01895186923315    9.50993313390854
O         4.25238438184788    5.85211737357170   10.74550610727821
O         2.99478161393837    5.88999977949257   12.47979122520796
O         5.12136368310522    5.74277135529454   12.67994290330661
H         3.66827034254838    3.52478193511505    9.36487733398195
H         3.22005201095813    2.78009228562546    7.81972910133466
H         1.32592923242048    2.45958381834675    9.15030738618194
H         0.86662938747558    3.91039442533803    8.25893789281620
H         2.08895929563193    3.90001853040317   11.04782971336931
H         0.35327181415196    3.95592017172841   10.71836524107779
H         3.42631735085947    4.65557948906679    5.74033360142169
H         1.89427969089322    4.17967910744734    6.47285343481489
H         2.82366470389610    6.97550624364816    5.77339783525799
H         1.34626858178628    6.12330414963897    5.32427464468343
H         5.15793279602133    4.90317754420954    8.77351419464938
H         5.23567841039933    4.50810936651093    7.03383468470046
H         6.11370926052116    6.79117352339568    7.59316486722514
H         4.71809938295873    6.89087152741935    6.51168802600914
H         1.67432060757005    6.04088104346876   11.17651076300740
H         0.52008526940349    6.11994744103789    9.97613589807702
H         1.27439804169875    7.86926348729967    7.18504187275866
H         0.54729120777238    6.45452490536963    7.52126162498484
H         4.81502356626182    7.42686419873975    9.38325717832362
H         4.17414773404906    8.37905872476746    8.20521932688964

