50
CSD_code = QORBOQ | q = 0 | S = 0 | Stoichiometry = C16H21F6IrO5S | MND = 8
Ir        1.52609897919290    6.92445500361362   13.05450007546839
S         0.54487034411494    5.08118275411343   14.19284583464224
O         1.55901732989720    4.30156358761336   14.90581496258820
C        -0.31298845217990    3.89506977060138   13.10679408136350
H         0.38986053426290    3.55008736544695   12.35694586460456
H        -1.13958273554874    4.41164151632004   12.63651982221509
H        -0.65617422751166    3.05912685031617   13.70514529300980
C        -0.80757414022508    5.40734765951379   15.35046625726326
H        -1.13235595309486    4.46924454577576   15.78550508626402
H        -1.59768908138327    5.89257783931365   14.79118930611363
H        -0.43801738715963    6.07904849857765   16.11624829936749
O        -0.47495104624544    6.82683562582091   12.23125706036380
O        -0.03213782152533    7.66022796048267   10.20254190889388
C        -0.75481310868606    7.23991762757706   11.07330684809185
C        -2.29715478282701    7.08883616510911   10.79525868679218
F        -2.70554729397950    5.84052535740591   11.11747411766019
F        -3.03029174608311    7.92888218228392   11.53532148701534
F        -2.62601356357318    7.28309334999689    9.51752065735746
O         0.41650237754236    7.96103678003666   14.56102746500889
O         0.62700039532350    9.78382148112701   13.30455616448008
C         0.20020366948211    9.16440653821061   14.25290791560708
C        -0.69726196577054    9.88699529968241   15.31421375748205
F        -1.67908837892586    9.09302197889059   15.76535113610903
F         0.03803939984015   10.23339761098044   16.38921840579819
F        -1.26230507133752   11.00185546656358   14.85324904968966
C         3.62574584563705    6.80221644261329   13.55513284208838
C         3.41694922572154    8.14059254544091   13.08724522642124
C         2.93923705846290    8.06764626188730   11.73762334497271
C         2.93928687511957    6.67643732580261   11.33773482641295
C         3.37713772130671    5.90147660115313   12.44810199120698
C         4.20099425733092    6.37147468256259   14.86067735592818
H         5.24505512299333    6.08560653851127   14.73113988888905
H         3.65578570384494    5.50764297346263   15.23844228582408
H         4.14702526260307    7.16823337340031   15.59622868751708
C         3.72569706103024    9.39889314936254   13.81851584536388
H         3.73463223685388    9.24210074593399   14.89336188402981
H         2.99295679705646   10.16505069452866   13.58000155302119
H         4.70899932443939    9.75695478020593   13.51021081598021
C         2.67974190934177    9.22926252020721   10.84702352568718
H         2.18632566748718   10.02117607059772   11.40405749416406
H         2.03454370136740    8.93916722318467   10.02412193362404
H         3.62255845005561    9.60998847698683   10.45248535451903
C         2.70518027355276    6.20006456278305    9.94589646818917
H         3.54846949223038    6.49381737128482    9.32043775423494
H         1.80716072454456    6.65915222072589    9.53995589835719
H         2.60082158445486    5.11971927350748    9.90513363937947
C         3.67310805675180    4.44255791290120   12.48994955789575
H         3.29492863595582    3.93140598032779   11.60925737245834
H         3.23740031164884    3.99366473764995   13.38180370560267
H         4.75241242661183    4.29659871959984   12.53798120498328

