63
CSD_code = QORCOQ | q = 1 | S = 0 | Stoichiometry = C26H31ClIrN4(1+) | MND = 8
Ir        7.37197403874971    4.87635429193952   12.96033847763846
Cl        9.25790189239060    3.57011292712200   13.53410901285352
N         7.72821627625268    3.98587315239600   11.04462627774114
N         9.34400912876774    3.99312645688432    9.30391307561665
N         9.32924723981712    5.61122723023253   10.97424433540041
N         9.55651785100466    7.13148738710543   12.47438829001747
C         6.26085528965415    4.08953951330441   14.78561993135432
C         5.44173825548126    3.90312801168306   13.65829817789914
C         5.16408023321205    5.20279260087910   13.08005010993395
C         5.79757997410279    6.19364076411708   13.88822730519369
C         6.56763236657867    5.50547569514993   14.89060017218545
C         6.68257586130220    3.06486252303463   15.77754841430648
H         6.31225854098655    2.07967253182758   15.51033357432749
H         6.29619648930354    3.33292328278241   16.76071053745869
H         7.76837129511733    3.01751671951003   15.84975221080057
C         4.78030105029091    2.62149928412764   13.26694118198289
H         4.35384894906676    2.68024175436734   12.26818727294695
H         3.96527070588545    2.41127348715095   13.96130968103042
H         5.47582543937000    1.78475211405977   13.31174534201248
C         4.16573997139606    5.46660215656722   12.00354310255636
H         4.34042243485345    6.42971213707085   11.53084440080288
H         3.16427006454322    5.47946359846784   12.43679873842420
H         4.18741916595134    4.69602579932211   11.23565616464700
C         5.53095784367228    7.65970343507787   13.84531303158105
H         6.36378426342000    8.22576276847905   14.25192676695953
H         4.64865918825295    7.86907012000457   14.45231516787690
H         5.32967544508312    8.00304413688013   12.83434003830945
C         7.20990263398692    6.12382080944189   16.08739379309658
H         8.07635632038605    5.54762592980320   16.40131712054897
H         6.49436777357971    6.13473939386596   16.91108957106659
H         7.52193388871176    7.14491166660680   15.88936592599759
C         7.20286213646113    2.87039937901625   10.53755352622772
H         6.35722352175629    2.44671082875533   11.05876842719630
C         7.71709136711731    2.27723942329737    9.39812076787629
H         7.28586618906889    1.37605527140893    8.99756404612278
C         8.81179360090211    2.89331928539751    8.80048899081925
H         9.28182066208856    2.50704765489669    7.90797541865645
C         8.80028716843337    4.48548311642768   10.39383182347406
C         8.79729300232452    6.08216216231390   12.14865297993637
C        10.54293695238924    7.32379563315195   11.53330330474456
H        11.25086326208304    8.12233770976725   11.62277130850207
C        10.40812499269628    6.37024880100442   10.58799661556575
H        10.96212060723082    6.15300348810971    9.69934814062663
C         9.38820864953076    8.00039071634975   13.59170243223942
C         8.63158468027631    9.15988325773462   13.42373848949240
C         8.49337779676501   10.01592064120728   14.50665867159151
H         7.90898880871279   10.91668784227451   14.39270751677154
C         9.09956872359387    9.74450087449927   15.72677602350457
C         9.86512423799980    8.59172460674299   15.85081210186543
H        10.35207740964326    8.38080636414078   16.79086125206732
C        10.02961561808709    7.70694131675335   14.79492922011559
C         8.01000105673155    9.48297845774295   12.09885129421429
H         8.76885354451202    9.85853045266147   11.41222409801147
H         7.25158334420919   10.25223946236201   12.21152909930616
H         7.55739962929129    8.60135685153727   11.64826390541488
C         8.95898757541621   10.68853887424377   16.87709894510634
H         9.80934735605503   11.36995332918796   16.89776984862078
H         8.94197138495673   10.15082326501209   17.82179777244864
H         8.05415045005259   11.28379438857311   16.78816024880762
C        10.88297462482190    6.48837322934156   14.92883598077501
H        10.34146721787965    5.59485649596632   14.62392761771127
H        11.21534621039027    6.36571764185774   15.95504843392176
H        11.76419834738785    6.57119749899077   14.29318449570758

