71
CSD_code = QORDEH | q = 0 | S = 0 | Stoichiometry = C33H34OP2Pt | MND = 6
Pt        3.01675170203363    0.49717259252077    5.73739423771809
P         3.30589944441494    2.79976316736999    6.42993939409875
P         1.81640372420882    1.69074642648658    4.00953805614976
O         0.83813292053636    1.10601826891614    5.86390624740972
H         0.26327907139985    0.33789192542331    5.86180260317267
C         5.00885088576514    0.18273385851553    5.25914699081138
H         5.33271412964217    1.05464567580533    4.68243379570475
H         5.15956978653777   -0.71094156420314    4.65367429917858
H         5.64281468537392    0.10113360430858    6.14151130453148
C         3.40214169310847   -0.37009572195918    7.59282118179463
H         3.92902911808920   -1.32235894820223    7.56079694005596
H         2.42044766666618   -0.53365653373398    8.04697096002048
H         3.96578929494480    0.31062390919982    8.23391255829332
C         2.53882211170238   -1.40034758165028    5.05109305023618
H         3.27869403512782   -2.16699795504068    5.28001629816389
H         2.38765338796736   -1.38401280643966    3.96928780146134
H         1.59438043145296   -1.69828913540068    5.51592668779272
C         1.97811693420528    3.82277831209066    5.72746902765712
C         1.27917697790122    3.31624097401991    4.63293445981906
C         0.25612119913242    4.06947401395684    4.07153279524200
H        -0.29328043101154    3.68641232489295    3.22235738941937
C        -0.06658731961596    5.30686122692662    4.60165139252307
H        -0.86684908419150    5.88519515404386    4.16212585249104
C         0.63012677967183    5.80659859610366    5.69099055688308
H         0.37371925487102    6.77268970328631    6.10090474052670
C         1.65177073925174    5.06590015684776    6.25663295357384
H         2.19604657487665    5.44858804296067    7.10963095371817
C         0.41965855854102    1.02848685845528    3.05184112713134
C        -0.89256123928236    1.15429055979250    3.49793269770947
H        -1.09184344725152    1.67512233536703    4.42339667078831
C        -1.93290474699778    0.61163122662352    2.76650221266611
H        -2.94948826834819    0.72288604196891    3.11654550425102
C        -1.67511570053421   -0.07577782274455    1.59207769588072
H        -2.48890872766695   -0.50174229478461    1.02350665147821
C        -0.36948796082114   -0.21923046314415    1.15177034195384
H        -0.16299008758196   -0.76138098011741    0.24015101123084
C         0.67271159156508    0.33023152092765    1.87526546839304
H         1.68939468155250    0.22087539204881    1.52504067306783
C         2.82249544217323    2.35010017297272    2.56284168955537
C         3.85790464164616    1.52183540002933    2.13971985562605
H         3.98349715715710    0.56130284423465    2.62554914447677
C         4.71635522957031    1.90492133358905    1.12688244247747
H         5.51197520977392    1.24477715635766    0.81135567077275
C         4.55935448024954    3.14221796329887    0.52532963538528
H         5.23233464198529    3.45482641155272   -0.26007422460775
C         3.53697157553655    3.97911462704846    0.93805971032735
H         3.40981452389928    4.94650926181550    0.47178502779921
C         2.67427502722665    3.58679619570941    1.94684066610922
H         1.88257380996110    4.25705644694860    2.25234991040930
C         3.15942727308396    3.24369479150535    8.18818826440638
C         4.00571323806256    4.10482394690636    8.87488908018024
H         4.84091543275310    4.56797667313191    8.36833407823525
C         3.77051030544634    4.37396441460734   10.21270442608606
H         4.42871102428312    5.04463259731109   10.74627874339540
C         2.69721210048644    3.79225011545737   10.86628480750099
H         2.52171496665920    4.00679433081587   11.91029251018453
C         1.84801818292632    2.93631917933633   10.18146323222540
H         1.00948111603849    2.48458895752612   10.69109000119469
C         2.07951483017219    2.66074377844090    8.84835555653494
H         1.42860326588418    1.99644879745148    8.29417819767933
C         4.80491690335884    3.64961669629446    5.85439660140654
C         4.79396755888506    4.52416274566560    4.77418777817744
H         3.85989342076828    4.78101677709277    4.29440918445772
C         5.98057794337359    5.06096087343283    4.30701779130163
H         5.96564685898018    5.73745077010032    3.46500143200562
C         7.18168635109398    4.73010415459508    4.91103659428897
H         8.10541145870286    5.15306986569789    4.54465533956674
C         7.19996538084391    3.84668584011026    5.97966883625229
H         8.13770985957349    3.57914454262536    6.44459342133086
C         6.01934810496631    3.29879436904704    6.44183284741331
H         6.02490231735411    2.58903790787482    7.25886916470500

