41
CSD_code = QORDUX | q = 1 | S = 0 | Stoichiometry = C14H18FeO7P(1+) | MND = 6
Fe        5.38452198535146    0.24734007740609    6.43926474526276
P         0.99209947006599    0.93288284601024    6.62841253649902
O         3.13375808443788    1.66195464364608    5.29137434339050
O         5.00625081106388    2.80411786193373    5.14903320409595
O         5.58823809355833   -0.73236441871261    3.70010278718152
O         4.67572324132151    1.89242553064857    8.73155610925963
O         2.98490158305511   -1.09624912085269    7.39430310784048
O         6.16273136268812   -2.22238562838420    7.84522844384876
C         2.15916051665684   -0.41218043962630    4.47020664884608
H         1.41938161660405    0.09380490432568    3.85237445407290
H         1.77092488384524   -1.37083667829917    4.80786206544438
H         3.03546368228697   -0.59192909537754    3.85240698453839
O         8.02574551659395    1.50853007418718    6.15864097363194
C         2.53217987822366    0.45023450512109    5.67521028388052
C         5.48907282780744   -0.39041752310751    4.77810032910976
C         4.48641576802296    1.79248823319285    5.50498911942252
C        -0.00054794067473    2.08759215664956    5.62066829749365
H        -0.22967982902510    1.59169218405860    4.67371639007577
H        -0.94198353067569    2.21116605249050    6.16689654673796
C        -0.03897248905177   -0.52114255000622    7.05348149669270
H         0.63600917726501   -1.35361232033820    7.26461633183871
H        -0.54627165820242   -0.26498984637334    7.98775546800522
C         1.53814122921713    1.76326532405332    8.15836943313361
H         2.04146271377445    1.01292492620689    8.77578713729238
H         2.26559011834569    2.52989346995103    7.87344056642122
C         4.98990436254365    1.22786316763378    7.86388956749448
C         0.65073424495262    3.44351372329575    5.36778962252294
H        -0.02925667953865    4.05960823414204    4.78430340530533
H         1.57742728887845    3.34188736458707    4.81071963596447
H         0.86317402408144    3.96711001844267    6.29623174615751
C         5.90615159141626   -1.26827067495681    7.30291761858428
C        -1.07140059709700   -0.90609886340894    5.99803255834258
H        -1.60102203531282   -1.79372659176139    6.33573200395600
H        -0.61265405835531   -1.13858624194839    5.04118100595217
H        -1.80670858930729   -0.11909764138158    5.85189072531251
C         3.49471616800346   -0.32450307851150    6.61890704359511
C         7.02058133358880    1.01130702418820    6.26567345974701
C         0.38146447617463    2.39233103079438    8.93186351531774
H         0.76978829127618    2.85777129879520    9.83451676451315
H        -0.35187409112935    1.64855613394331    9.23454532941375
H        -0.12094284273061    3.16162992734268    8.35090819380428

