61
CSD_code = QORHIP | q = 0 | S = 0 | Stoichiometry = C26H32Si2Zr | MND = 12
Zr       -6.29033793678391    0.97859575945119   -4.86710557278238
Si       -9.93688446879157    3.36105819280833    1.07682001320887
Si       -5.68350253360855    2.44587061603927   -1.60078425922284
C        -8.46472362539743    0.73410336357201   -4.96144527077356
C        -9.29751840673985    0.22134332007640   -5.95430288447512
H        -8.86711060880504   -0.14053462833373   -6.89110584211798
C       -10.67856163917019    0.15741318234888   -5.79697205225122
H       -11.29734007320335   -0.24596249477525   -6.58742401591348
C       -11.26246712545643    0.61223201829835   -4.62724164261165
H       -12.33532497856023    0.56436417352274   -4.50403822828951
C       -10.47184129890192    1.12801439353938   -3.61490132987415
H       -10.92248662586348    1.48428796314045   -2.69807347804469
C        -9.08799360543777    1.18909929872435   -3.77311338320583
C        -8.20378880139156    1.72585293532795   -2.71245884083064
C        -8.81121183796042    2.21624125866703   -1.52985307430144
C        -9.28532413119640    2.65961056965373   -0.50625524081868
C        -6.85304533603855    1.74682394265966   -2.88984458419245
C       -11.78130611686168    3.79439006610618    0.85991956164950
H       -11.92421099016417    4.50311796574038    0.04971207300583
H       -12.19623272423727    4.23674363810394    1.76137699285702
H       -12.36742953316016    2.91010835971054    0.62821641976171
C        -9.72259329919545    2.06639168104430    2.46185484221381
H       -10.25588903413449    1.15004082692492    2.22773633562417
H       -10.09984882201161    2.43351175897716    3.41227287242548
H        -8.67687296405134    1.80876848155654    2.60110701628810
C        -8.93182708824008    4.92916022519277    1.49215387546066
H        -7.87626093288039    4.69930990936972    1.60365131628345
H        -9.26930602736542    5.38656814780659    2.41798608500345
H        -9.02381182038963    5.67281094940212    0.70610751671935
C        -5.80945353997792    1.72691098247218    0.17044828212028
H        -6.75566215804604    2.00261930600848    0.62251165314503
H        -5.01039475870181    2.09552783298026    0.80625730645025
H        -5.75378933999488    0.64250158248659    0.16451661109250
C        -5.82486758788073    4.35461580157683   -1.46794795895024
H        -5.76523349384060    4.83147338408749   -2.44205888630261
H        -5.04108049701593    4.77263355724926   -0.84409857395967
H        -6.77980881434497    4.62505367791199   -1.03005006870073
C        -3.92011012035819    2.00947405283560   -2.25298243279600
H        -3.57849172246026    1.05803650926754   -1.85497256033739
H        -3.19485402623530    2.75699262557361   -1.94668628518215
H        -3.89451284627615    1.94850927124574   -3.34512864720911
C        -6.89054075799786    2.50866185540004   -6.79270382518352
H        -7.82128283191260    2.47816593540251   -7.34593737026762
C        -6.61637768260946    3.35065426838702   -5.69365386288146
H        -7.30810134190259    4.05363900889203   -5.24554315537276
C        -5.24986899966884    3.21229926316124   -5.36840977206607
H        -4.70854447139773    3.83010028245980   -4.66266620156380
C        -4.67991659191972    2.27881091234341   -6.26292818195659
H        -3.62152660945016    2.05796426217124   -6.35757918736272
C        -5.69741852800390    1.84184913698973   -7.14203357579633
H        -5.55710052972924    1.22354303650083   -8.02235010794704
C        -5.39127947111847   -0.94640104640463   -3.56443466635117
H        -5.27980195271436   -0.94132426756640   -2.48692609943673
C        -6.50300966874322   -1.45225587430608   -4.27214559158451
H        -7.39454337997957   -1.88042370775214   -3.82965283706342
C        -6.19198895584919   -1.42735194452464   -5.65062281333558
H        -6.79840755624912   -1.85250323378020   -6.44180973251308
C        -4.88519917417376   -0.92117441566512   -5.79295364935626
H        -4.30914609689452   -0.90557812183561   -6.71091821827809
C        -4.39118289881020   -0.61123397737757   -4.50768673895107
H        -3.36675120977225   -0.34232583088195   -4.27684807289372

