47
CSD_code = QORHEK | q = 0 | S = 0 | Stoichiometry = C21H17ClCuN5S2 | MND = 4
Cu       -0.94505542824072    5.52003146102927    5.13742326170412
Cl        1.27253435771472    5.24361361128826    5.49187339818911
S        -3.12800685221896    2.63359529469365    6.30601971671709
S        -0.85700175353650    9.06941184974061    6.52498868552660
N        -1.43679251266716    3.68469318692037    4.41205432227484
N        -1.35795759976411    1.47260515177434    4.67087943495772
N        -1.77467113224871    5.98538598011792    7.01202601415426
N        -1.48498565548199    7.37543095546118    4.43819256631768
N        -1.61816054548850    9.55223964007344    4.01842543708942
C         0.26297509322903    3.80615749381345    2.56508312506166
C         1.09139935672157    3.01701477709198    1.79381269855138
C         1.13869475467728    1.63097325468689    1.94653252835652
C         0.36097708784037    0.97826700187633    2.88330689289909
C        -0.47143294666487    1.76525368608934    3.65983502600938
C        -0.52927231353070    3.16493100501897    3.50731822323244
C        -1.89232912234372    2.65504668303442    5.08472338260879
C        -3.51899724828784    4.41143412294634    6.50533131672370
C        -2.60803406567157    5.06322698715523    7.49400713545997
C        -2.63669428067684    4.71498499714644    8.83666946823709
C        -1.78530663341603    5.37002668094404    9.71184313398384
C        -0.93659641157923    6.34585686974193    9.21147187848950
C        -0.95349752563433    6.62440474989473    7.85203409188249
C        -0.02139779104312    7.61924102132913    7.25405810134540
C        -1.31973431689368    8.57896091211089    4.92789656686638
C        -1.99619431971566    8.92291101351661    2.85725227688939
C        -1.90327754741955    7.54302922500375    3.14011050528176
C        -2.39972615238124    9.38736467649368    1.61722590878031
C        -2.71193851728486    8.43549390524895    0.66523572964313
C        -2.63172096299874    7.06965346462153    0.94052753356064
C        -2.23085678293937    6.60021333974346    2.17517047658712
H         0.24662440429018    4.87997216421571    2.47016821021236
H         1.72920982175342    3.48354287021245    1.05865142513508
H         1.80739676970712    1.05652777073015    1.32346337223172
H         0.40550250848366   -0.09218401267061    3.01250130804569
H        -1.55738105615622    0.57005754176005    5.06762304342473
H        -3.42483279710012    4.88055477444915    5.52677008754962
H        -4.55431012910340    4.42230235042665    6.84691174828049
H        -3.31447046761307    3.94909956732448    9.18144866980112
H        -1.78725176824412    5.13007660614755   10.76432291509974
H        -0.26599605482230    6.88127340735393    9.86503312103869
H         0.63745921943006    8.04565473115851    8.00892542304923
H         0.57490977965846    7.13526974993756    6.46731684524618
H        -1.55633088769622   10.54195392604655    4.18765359859862
H        -2.46497419491540   10.44322541904633    1.40417497064510
H        -3.02728332875690    8.75572649677291   -0.31619108880732
H        -2.89028399760777    6.36506315386694    0.16478344761149
H        -2.16783005336285    5.54723048461333    2.39951406545432

