52
CSD_code = QORHOV | q = 0 | S = 0 | Stoichiometry = C23H23I2N2PPt | MND = 4
Pt       -0.00354250914932    5.33639235392712    7.27224406977934
I         2.62147975365786    5.40145239875861    7.46800991067941
I        -0.27571118056531    7.82792718181438    6.47537615674117
P         0.12003344892801    3.17531003360088    7.98268957567297
N        -2.71224694124484    4.85024363984274    6.08841342437872
N        -2.88066903211107    5.64201534172620    8.08148245346570
C        -1.40636177939074    2.21629129186679    7.68793991457052
C        -2.50457800767658    2.46126487522445    8.50998241000436
H        -2.38777384375225    3.10876938733445    9.36976116117380
C        -3.72482373623761    1.87283507029716    8.24319512862629
H        -4.57019557767354    2.06819358416486    8.88677164157933
C        -3.86409987318800    1.03209805510500    7.14961349889162
H        -4.81880455366955    0.57463172956238    6.93787911697134
C        -2.77507035250296    0.77543109347307    6.33413515529098
H        -2.87764448356613    0.11250055165284    5.48719010227489
C        -1.55150667912625    1.36773529857934    6.59656347340580
H        -0.70397241046510    1.16358192841004    5.95655563449997
C         1.40585073900489    2.13479406544606    7.23780313620822
C         2.21169409861464    1.26676393161563    7.96097986541478
H         2.10331953949199    1.18419248667308    9.03274257310082
C         3.17830243739137    0.52483163436169    7.30361980579789
H         3.81104554555343   -0.14387832820107    7.86823991854148
C         3.34556156608155    0.64669695078542    5.93507245480322
H         4.10653607084562    0.07002383717016    5.43113560521225
C         2.55305668754119    1.52551241791677    5.21282848366668
H         2.69754129466520    1.63966797621894    4.14881895305060
C         1.59058647875611    2.27083623282213    5.86323171411105
H         0.99345749339253    2.99321629433279    5.31552311409447
C         0.30031276307429    3.02068030484565    9.77935691032916
C         0.06372761286039    1.80816082330415   10.42401980218233
H        -0.23421926604805    0.94119740352597    9.84842810213996
C         0.19887252962423    1.72396170425326   11.79666721816894
H         0.02055071693577    0.78282497035508   12.29619352594141
C         0.56141734541608    2.84268967468912   12.53218754778072
H         0.66785598896555    2.76899840318367   13.60420384533664
C         0.78156618006617    4.05277040662176   11.89619602991184
H         1.05832785956984    4.92563915852304   12.46801624469439
C         0.64887883175861    4.14220197265142   10.52221128866020
H         0.82461371587236    5.08666649921569   10.01767153631490
C        -1.99627227743255    5.25151615529368    7.15045332431792
C        -4.04978171005172    4.97634153828349    6.35579106104238
H        -4.80218111673145    4.71289634723619    5.64198354434513
C        -4.15562804147465    5.47566786821822    7.60857262387020
H        -5.01776276104079    5.73102060002474    8.18894672246733
C        -2.14605549484999    4.41620365728253    4.84151854881465
H        -2.29801241194846    3.34403254964289    4.69919948833018
H        -1.07216088048250    4.63293869901009    4.85712657844298
H        -2.60016470217048    4.96096326750078    4.01338815240879
C        -2.52981590135632    6.21291145406346    9.35262747208681
H        -2.98003830015548    7.20068998660429    9.45856653672475
H        -1.44084952054107    6.31748471862438    9.39709523276751
H        -2.86354535346742    5.57481052255174   10.17338021089769

