101
CSD_code = QORHUB | q = 1 | S = 0 | Stoichiometry = C43H52IN2P2Pt(1+) | MND = 4
Pt        9.81658744604222    6.98411523728146   15.81374304793443
I        10.58888497354256    8.52951693813734   17.77855887672249
P         8.28301446808199    5.97944333926758   17.18880292800531
P         9.00228507798086    5.59073135193056   14.21160655721945
N        10.86346384395678    9.10607058283256   13.93197353307357
N        12.39126372079573    7.64992009843753   14.36863500366640
C        11.10681742504626    7.96429082034889   14.58982776612729
C        11.99902979787863    9.51121587220371   13.28543087855324
H        12.04604050712243   10.40149327976003   12.69509389629521
C        12.95986717369315    8.59672880103693   13.56018513515345
H        13.98247836524225    8.55893769989035   13.24965778266590
C         9.60641005652969    9.82323432677224   14.00610761322899
H         8.92418294256240    9.17130559840448   14.58045271084234
C         9.77019988320868   11.14340629682883   14.76074392719273
H        10.44758403613449   11.79790012144477   14.20915771412007
H        10.20397606772449   10.95705005500767   15.74430239537288
C         8.40907283266758   11.81624758772815   14.90935923025944
H         7.75994973490017   11.18200195595205   15.51740935053439
H         8.52939775138945   12.76472871459598   15.43276993924310
C         7.77222502255245   12.05167204696400   13.54262683444041
H         6.78783766650152   12.50495974704546   13.66509988296423
H         8.38881268100067   12.74796299436786   12.97078996594135
C         7.64555733769337   10.74067149789639   12.77112396959589
H         7.22152787071895   10.92685059202640   11.78348550781097
H         6.96981849134076   10.06603436987270   13.30272359491512
C         9.01062016317428   10.07345642906605   12.62281843655440
H         8.91727514914218    9.13123399577201   12.07943303267497
H         9.67149939322124   10.72859494798205   12.05235663808006
C        13.06252853035585    6.52814665279134   14.99637743736990
H        12.27771335676991    5.97835106672908   15.54676743442906
C        14.11115429990468    7.01950229152260   15.99598926280252
H        13.63819961980008    7.67642518909866   16.72870554349518
H        14.87638934780784    7.59365660653662   15.47046255087299
C        14.75608946062193    5.82666286966092   16.69465447200133
H        15.50928409583371    6.18233679833438   17.39773764335862
H        13.99712840375967    5.28559750809216   17.26426220261698
C        15.39194425269991    4.88909207839994   15.67285133410278
H        16.19170003654688    5.41352761128463   15.14623663874874
H        15.83488573682892    4.03152836567892   16.18050112968747
C        14.34885424403261    4.40856364150481   14.66805258460337
H        13.58260497219413    3.82657443191072   15.18548460488980
H        14.81405454079004    3.75928973992031   13.92513539588523
C        13.68983027814660    5.59233881764004   13.96423036184457
H        12.92274610522088    5.23056225499818   13.27366851971662
H        14.44062559766715    6.13427664234905   13.38609250047350
C         7.28388501539344    4.69871240509612   16.23756472047878
H         7.80512097876860    3.74723789506708   16.42141379156157
C         7.31980637112697    4.98938818980396   14.72826645952048
H         6.62915429842582    5.82029662735645   14.52845183354883
C         5.84555291238401    4.58487707809268   16.73477436973866
H         5.81654217191291    4.34765038748613   17.79439466878306
H         5.32345595684884    3.78872220241339   16.20840333048509
H         5.30460939615497    5.51711235506746   16.57757983224285
C         6.90824316323196    3.78085768575647   13.88913165546128
H         7.08128756911845    3.96815504820268   12.83005064191587
H         5.85138197470745    3.56093732701528   14.02037212503076
H         7.48060500128427    2.90037974262270   14.17638624091153
C         8.82861801941949    5.10739822140004   18.67905629707211
C        10.20270725680468    4.95666321261945   18.85401160962382
H        10.88636760226415    5.38995611919676   18.13203835816438
C        10.70206517614225    4.28686673618974   19.95475475311657
H        11.76856909307950    4.18530216135056   20.08581422391823
C         9.83055586386435    3.75782122688173   20.89184250625322
H        10.21565627108271    3.23867443447402   21.75572895044239
C         8.46227169144082    3.90204940341837   20.72480640818466
H         7.78282445338639    3.49462681851642   21.45809547672811
C         7.95761595266278    4.57240208504047   19.62557376295846
H         6.88922156007297    4.68566406810409   19.51711374923147
C         7.10638546972303    7.27325341387777   17.65540338143938
C         6.76532151615509    7.59416803551135   18.96257845644277
H         7.15947374033538    7.01855091673480   19.78674200260425
C         5.93972901263106    8.67889801243987   19.20687339871604
H         5.67601078248069    8.92869953756534   20.22300394463656
C         5.46575054014498    9.45004725769964   18.15937391135036
H         4.82641639585595   10.29613746091918   18.35824009329131
C         5.83032344772359    9.15219674419849   16.85471820295200
H         5.47765603882523    9.76790984866457   16.04003365071164
C         6.65560999083729    8.07442734281805   16.60500023448129
H         6.97124025448071    7.84877493520324   15.58842478784592
C         8.84828917524987    6.20221980271436   12.51407730458462
C         7.64233180392096    6.56443375445663   11.92289490220478
H         6.70829127868822    6.44543566403108   12.45139462135635
C         7.63100399907375    7.07988796342420   10.63732371892286
H         6.69152580504729    7.35142080396079   10.18080176980452
C         8.81576480027367    7.25043395501381    9.94065346132684
H         8.79995948212368    7.65154835329336    8.93938528583569
C        10.02353776102502    6.91265825369571   10.53374971997421
H        10.94954897792430    7.05237752762408    9.99716085081380
C        10.03998279386810    6.39704884920490   11.81465582818405
H        10.97848524922840    6.13179708468865   12.28477035077775
C         9.98265616015864    4.07066340412597   14.10118295413866
C        10.15308447838465    3.35098254566523   12.92303028299596
H         9.71676693790751    3.70627531158524   12.00033150043633
C        10.88768518700945    2.17841095895532   12.93713993410633
H        11.02170734682363    1.62200701458849   12.02212763285077
C        11.44421027771410    1.71377645864032   14.11828368474477
H        12.01325427945859    0.79719218655663   14.12171703399895
C        11.27236450103853    2.42568638447506   15.29535741456309
H        11.70078082233173    2.06306337870288   16.21790089911052
C        10.54887104541311    3.60299460781393   15.28458675802722
H        10.41325013967300    4.17086293460332   16.20007049532439

