46
CSD_code = QORHAG | q = 1 | S = 0 | Stoichiometry = C21H17CuN5S2(1+) | MND = 3
Cu        6.51910329668665    9.12562400106324    1.79750464868092
S         7.34925198479530    5.98013190111134    0.00355910403489
S         5.76512353395442   12.58522948220305    0.70672718800715
N         6.60611369810278    9.36784163169123   -0.20857271002409
N         8.69579594515280    5.63512043196877    2.27879564037274
N         4.24139136450758   12.40321422835052    2.88832708345850
N         5.46806880006531   10.57806630524427    2.59538959776377
C         6.32165200243241    8.34298987278466   -1.00984856683734
C         5.91091975099560    7.06863232057203   -0.34903685909004
C         9.72503287536675    5.84034438082643    4.58326559514642
C         8.19139451406024    7.40515509747849    3.50794709353700
C         6.78286992162692    9.67811734760512   -2.93584071000292
C         4.70625815142185   10.41213001180577    3.73613048268264
C         8.21585510531425    8.25697993532782    4.60452016455014
C         6.97335298857822   10.54257871340580   -0.71729528843354
C         8.94351257014845    6.21482475703146    3.50256393385507
N         7.51733301329065    7.51454050300679    2.30676543093962
C         3.92221132930196   11.56511938556920    3.93278371540941
C         3.76455369492129    9.46497366989593    5.68520133585648
C         3.05434621880324   11.68361919144761    5.00596228466250
C         4.62890355237560    9.34100781285427    4.61675424628903
C         6.41482475497578    8.45792633703019   -2.39112882434497
C         5.16186002803737   11.76929251551125    2.12185549266513
C         7.05884953973279   10.74067139470102   -2.08953209177677
C         7.84534827055544    6.44791218416111    1.60568228232445
C         9.73324136718813    6.69340066077034    5.66954710554370
C         8.99524707343140    7.87901736860664    5.67863862476776
C         7.27236246018814   11.63250609437878    0.25841501433273
C         2.99405668213117   10.61379187149302    5.87749150869349
H         2.45642997741988   12.56844747028644    5.15231333489081
H         2.33318660696354   10.66420468201049    6.72826801681203
H         9.03953168235400    8.51459718375610    6.54902174929869
H        10.32690128601151    6.44003145156488    6.53353460339987
H         3.67812566499307    8.65446381267539    6.39167947824135
H         6.85292093432388    9.79967159023144   -4.00524864236372
H        10.29804471261479    4.92741535243003    4.57516605021649
H         7.64862946152946    9.17482981559166    4.60183837295619
H         5.22184766167162    8.45358090304354    4.45870229859710
H         7.34029348261599   11.70423285584914   -2.48247402745930
H         7.94238386475403   12.37578713342489   -0.17138356345651
H         3.86644147253591   13.32134589021313    2.71273766825559
H         6.19865810420213    7.61092862350881   -3.02197768761561
H         9.07092024647126    4.76681399863226    1.93279078913939
H         7.68720976330034   11.23263280466972    1.18426957579883
H         5.40983580000290    7.25931954182618    0.60070010467596
H         5.27710479009315    6.47063748239064   -1.00251064445302

