27
CSD_code = QORJUC | q = 0 | S = 0 | Stoichiometry = C10H8N4O2S2W | MND = 6
W         9.72062885952278   -2.24250393443787   15.13178558061904
S        10.62778058765488   -4.58089584170722   14.58268439857603
N         9.14710200585045   -2.97273026420738   13.20781575634984
C         9.68417791964029   -4.21444779852789   13.18538426058635
C         9.47025820017356   -5.08559589083089   12.11160683122701
H         9.91637622494455   -6.06635051878104   12.13700651925460
C         8.70176414292597   -4.65205543128528   11.05544919398038
H         8.52316817861915   -5.29839880828840   10.20947292680512
C         8.15542793122937   -3.36751651654485   11.08479869565569
H         7.55312852217367   -3.00195194937350   10.26978916614444
C         8.40194083640495   -2.56546769809451   12.17965002506667
H         7.99854094910027   -1.56064042450944   12.25144959493626
S         7.67464199486174   -0.69315455967757   15.06383301117656
N         7.90144794482854   -3.16973344483770   15.75942803096707
C         6.98636558670273   -2.18984155478593   15.57708281842382
C         5.62233662640656   -2.41179827362116   15.79585601881245
H         4.92859163581880   -1.60256287817772   15.63634920422834
C         5.21748547577229   -3.65817873113866   16.21621690357557
H         4.17279721724405   -3.85919353544341   16.39950493714997
C         6.16914373920543   -4.66195419380802   16.40647990621746
H         5.87977175113327   -5.64521572346945   16.73830831278441
C         7.49622202385127   -4.37394745354241   16.16423377684401
H         8.27359774753521   -5.11975305481731   16.29489094966387
N        10.25177659947562   -1.84184787982723   16.79612249269389
O        10.67154098157842   -1.55275476252917   17.84673653773241
N        11.11889275394011   -1.30765003731562   14.51255103207313
O        12.04039356340666   -0.66785884041998   14.18841311845537

