43
CSD_code = QORJOY | q = 0 | S = 0 | Stoichiometry = C9H27Cl3P3Rh | MND = 6
Rh        3.91931364573171   12.98675800110919    1.76647518194246
Cl        6.01113853495379   13.94758694597055    2.15345271192647
Cl        4.68587323609137   12.17866607509226   -0.28424373981335
Cl        4.64565628057325   11.02174080444852    2.79582761482629
P         2.02013663990677   11.89998247962027    1.03423012239021
P         3.31016075425053   13.43309051577843    3.94727286739785
P         3.59374642180640   15.06725714017714    0.82232620609729
C         1.59056191132939   12.00060621005221   -0.74383807760067
H         1.57582628090484   13.03383449108975   -1.08308345918834
H         0.61203782822521   11.54684695503557   -0.89961345157512
H         2.34923851028335   11.46551435927501   -1.31050896305645
C         0.38848592914648   12.33888899954865    1.77000277372474
H         0.41442684939619   12.21104583733799    2.84926407221596
H        -0.38309411936230   11.69280159185582    1.35370880098366
H         0.14956125030398   13.37585054627064    1.54324401809340
C         2.04151168809804   10.09294702504656    1.25584327579451
H         2.92980684729339    9.70589133185464    0.75766841145918
H         1.14245484214409    9.65819415010795    0.81839577185080
H         2.11163110436159    9.84943193065177    2.31441207020362
C         2.04788920043626   14.73216347866675    4.28714089159378
H         2.35774970018792   15.68191478937319    3.85864201996965
H         1.92852480670799   14.84939906843186    5.36330280752841
H         1.09482134131024   14.44260451709486    3.84931766812265
C         4.67773259071959   13.96483455171934    5.02493808128161
H         5.45349135358024   13.20099394338032    4.98073063254418
H         4.31754532478679   14.07989648208960    6.04751484661980
H         5.09821092821515   14.89898490972111    4.65696536908678
C         2.61848606376384   12.06756710634778    4.95377073885482
H         1.78395960746675   11.59195400193716    4.44368032449810
H         2.28584232320319   12.46598844138268    5.91196829025728
H         3.39731199833749   11.32355995386137    5.10451610867133
C         4.32915237471029   15.27719978588792   -0.82972646464283
H         5.39034437516051   15.04168719192982   -0.75501164493385
H         4.19228876464876   16.30552951884848   -1.16516333842702
H         3.87366511935422   14.57948351127832   -1.53010535017614
C         4.29343121137024   16.53117670046308    1.67339069413117
H         3.98241340545831   16.56264285873526    2.71499977500929
H         3.95793127886226   17.43292856678887    1.16158129600498
H         5.37827011263850   16.46080804336415    1.64136670373222
C         1.87566466760187   15.67035883973774    0.53859248408154
H         1.32577684843054   14.96528614888315   -0.07974951432879
H         1.90736610120165   16.63573834602261    0.03545001374817
H         1.36225606640941   15.77856385373488    1.49185135909733

