103
CSD_code = QORJUD | q = 1 | S = 0 | Stoichiometry = C46H52AgN4(1+) | MND = 2
Ag        9.38861804729765    6.17184576509716    3.83102270649512
N        11.16517843364646    5.49072412646951    6.37434336530443
N        12.17471324715637    6.92726047517602    5.10855208943299
C        11.04789813366681    6.19966311433002    5.23591893074955
C        13.02259564914265    6.68249874819788    6.16923251341236
C        14.31889482307590    7.20005934904856    6.48907626723597
C        14.96883705537478    8.20970029025204    5.76290660465825
H        14.48965327025733    8.67631593325505    4.92216850341137
C        16.22342647663528    8.64919318613640    6.10747247130826
H        16.69785445761316    9.42888610688885    5.53183336012335
C        16.87511594713668    8.08684517099946    7.19826035216643
H        17.86453275824341    8.42035006919205    7.46985216396373
C        16.24965946899113    7.11434589425068    7.93917284279132
H        16.77800486658553    6.71647266780851    8.78842592879805
C        14.96324322632246    6.64768907920407    7.62666585016423
C        14.30060674438013    5.65778274913062    8.45536077056499
C        14.93690202491532    5.10624912190713    9.57825154223189
H        15.94853300137913    5.38515989786275    9.81803142019002
C        14.31122510572910    4.20567319916721   10.40495949408544
H        14.83321023759491    3.80282233031649   11.25887930087068
C        13.00059211145019    3.82561253923541   10.14403854126007
H        12.49349365191910    3.13394854233589   10.79899133513072
C        12.34959503273418    4.33221554910448    9.04599972078885
H        11.33507280115853    4.02138814535095    8.88198759306570
C        12.97582890672482    5.23362755185993    8.17152713046173
C        12.37328134061346    5.76002743293198    6.98382723928960
C        10.08798380477046    4.64370579599438    6.82260961153962
H        10.48415126117246    3.69108991979038    7.17789388406516
H         9.46067492638862    4.43219805962616    5.94374479818584
C         9.23310658649649    5.33584986405459    7.88725783537991
H         8.77846760264003    6.22544898501921    7.44127058137968
H         9.86310528420702    5.67141973064196    8.71350226515101
C         8.14103419105468    4.41108144570626    8.41749533980665
H         7.53765788422119    4.04970521240321    7.58215959691663
H         8.59953763355624    3.54179274255457    8.89389313227914
C         7.24672400304435    5.12378071765393    9.42327795140750
H         6.46854842665290    4.45482505794694    9.78009357770719
H         6.77279281057951    5.98996157370912    8.96749964314928
H         7.82661544685492    5.46190390997729   10.27860072575045
C        12.40570317982806    7.71718506918939    3.92369797320470
H        12.71502542318816    8.72716198798386    4.19834507046371
H        11.43534643105803    7.79908705636216    3.40908910916309
C        13.41072110994346    7.05696187079692    2.97718888586834
H        13.57442776428558    7.72922635396851    2.13319522512092
H        14.36627814912956    6.91534274768543    3.48484188718137
C        12.91662364929761    5.70709637559835    2.46343082515690
H        11.92544271145471    5.83471625233632    2.00967053462173
H        12.81488837835709    5.01129176840251    3.30010662954301
C        13.87698239552202    5.11748618511550    1.43911350956294
H        13.52913752123117    4.14620009201364    1.09794868075291
H        14.86400416571622    4.98976285299898    1.87609005636641
H        13.96822580399338    5.77174102616888    0.57613719414799
N         7.61203115638141    5.49071229659726    1.28773850111368
N         6.60248667045844    6.92723491512162    2.55354181578618
C         7.72930624907676    6.19964450255937    2.42616669391026
C         5.75460934278997    6.68248651215749    1.49285374322245
C         4.45830955624587    7.20004507825476    1.17300607221873
C         3.80835885203499    8.20968170640607    1.89917395771846
H         4.28753519650716    8.67630386595085    2.73990995315224
C         2.55376592062938    8.64916273145717    1.55461123453187
H         2.07933349430386    9.42885294524566    2.13024995171000
C         1.90207788065233    8.08680196354174    0.46383008847051
H         0.91265514367009    8.42029174034881    0.19224534792919
C         2.52754033530859    7.11430684267418   -0.27708222422745
H         1.99919298613803    6.71642136006231   -1.12632821588438
C         3.81396297230508    6.64766569784356    0.03541970259315
C         4.47660518601535    5.65776430546904   -0.79327616041947
C         3.84031101219064    5.10622283564862   -1.91616404497438
H         2.82867755608760    5.38512568823168   -2.15594297353900
C         4.46599326159426    4.20565106433364   -2.74287261599552
H         3.94400822879318    3.80279191912240   -3.59678851279710
C         5.77663121981811    3.82560276539895   -2.48195736322751
H         6.28373328672870    3.13394002197685   -3.13691029286553
C         6.42762744271822    4.33221481615088   -1.38392149643180
H         7.44215311189868    4.02139610437861   -1.21991118975586
C         5.80138616337436    5.23361876801450   -0.50944527293372
C         6.40392986158707    5.76002108011375    0.67825482529639
C         8.68922803773501    4.64369685725425    0.83946782916249
H         8.29305764020462    3.69108787215770    0.48416778076144
H         9.31652728745902    4.43217575126563    1.71833669868889
C         9.54411533054042    5.33585189870549   -0.22516633082579
H         9.99876724632083    6.22543569620732    0.22083968047089
H         8.91411637575193    5.67144700875115   -1.05140089104334
C        10.63617535549215    4.41108097185723   -0.75542739075997
H        11.23955200829692    4.04967535443378    0.07989739644814
H        10.17765973802859    3.54181056909898   -1.23184895836654
C        11.53049227691235    5.12379396853378   -1.76119632470813
H        12.30865918348791    4.45483610325013   -2.11803132343442
H        12.00443784416444    5.98995951462305   -1.30539770909012
H        10.95060104976274    5.46194981956441   -2.61650907653476
C         6.37150235640436    7.71712924460177    3.73841962047025
H         6.06221164673072    8.72712509506930    3.46380913877090
H         7.34187414380279    7.79900087863583    4.25300385025298
C         5.36649945465402    7.05694792488695    4.68497701392405
H         5.20294055636212    7.72920632656004    5.52904692147910
H         4.41085949264747    6.91547629197139    4.17736131723688
C         5.86060294624714    5.70689731992418    5.19843535411650
H         6.85214422516984    5.83419185826727    5.65195466023028
H         5.96181344792407    5.01106822804054    4.36146472437779
C         4.90019246611307    5.11757437490899    6.22299963906814
H         5.24802216256244    4.14578360362530    6.56344899464533
H         3.91220290661446    4.99072227719413    5.78654745018059
H         4.81024936880058    5.77193397420133    7.08678584808404

