88
CSD_code = QORJOX | q = 0 | S = 0 | Stoichiometry = C28H51ClCuN5P2 | MND = 2
Cu        4.35582921548866    4.24871732963008   13.53715781467853
Cl        5.35558346015911    5.36091226172068   14.97546233988026
P         2.26697162565445    2.18573936338264   13.31960159137409
P         2.67550043895670    3.22536730154950   10.85338889007635
N         1.53615255749212    1.98390510929056   10.76910547802480
N         1.08468814605973    2.92774914672656   14.26130298043642
N         2.94482823996551    0.98124349947496   14.27124773935018
N         2.00007620627805    4.59092547552011   10.15948595650694
N         3.67849403452036    2.97166037046211    9.55740944501120
C         3.39987787446180    3.11788556039579   12.41168416366031
C         1.31238973694286    1.37995372957885   11.87723357429201
C         0.34278087171516    0.30110075372338   11.91281383209603
C        -0.64226465445583    0.23609870255516   10.91939219703189
H        -0.65428592286413    0.99524738357793   10.15253340215670
C        -1.58553958257088   -0.76957367084147   10.93129525847634
H        -2.34685758260129   -0.80163817720280   10.16589783667850
C        -1.55908019814703   -1.73995008473115   11.92236205727662
H        -2.29845192028995   -2.52677238367594   11.93090453433132
C        -0.57496782178768   -1.70027499058640   12.89689583357348
H        -0.54103386155636   -2.46303242893583   13.66140167040436
C         0.36645449126111   -0.68952372278282   12.89528647983495
H         1.14456232742732   -0.67359625981798   13.64027008227058
C        -0.03180921566541    2.09517069178862   14.70843611497406
H         0.32841163346085    1.07189182049204   14.55475530605190
C        -0.39318123784877    2.23336743896827   16.18646786083418
H         0.47056795784945    2.07921541585136   16.82597685677495
H        -1.13617279004921    1.47626026479830   16.42983573061997
H        -0.82410169657810    3.20642781636121   16.40303567839025
C        -1.29485081645981    2.26499495944256   13.85346240809839
H        -1.90811511104715    3.08915043767515   14.20499067318822
H        -1.88966641825784    1.35499297633443   13.90274031837229
H        -1.03415176801960    2.44110854402789   12.81238501705738
C         1.17993244839173    4.36934180383023   14.49854977384888
H         1.90517920399815    4.72077772485634   13.74197520426270
C         1.78581558788914    4.71328543147256   15.86089848624139
H         1.87216411098467    5.79421673987538   15.94461733358564
H         2.78979590183826    4.30153075041263   15.94436541009996
H         1.17859634495250    4.35248267184298   16.68553739832740
C        -0.12421053776922    5.13812889707187   14.30016725926216
H        -0.61721456603708    4.86444820293300   13.37219924234386
H         0.10600394483271    6.20062883327315   14.26169741646126
H        -0.81124486940368    4.97596321208794   15.12661197030265
C         3.80309082818326    0.09536411217897   13.47612953053763
H         3.32193323267514    0.10909708817785   12.48150097604283
C         3.82789503861432   -1.35112597094571   13.96893964373900
H         4.45160954866236   -1.44559267293745   14.85360274520775
H         4.25764217413436   -1.97634035403140   13.18924034457017
H         2.83630067609374   -1.73049052090091   14.19678954240634
C         5.24409536944919    0.57630786328307   13.28525952280143
H         5.26524602873678    1.64853417445161   13.10398636082157
H         5.67683886310800    0.06768901629771   12.42619721029313
H         5.85791512931277    0.35448018997058   14.15202091364584
C         3.08954996148460    1.19405162765518   15.71019889878426
H         2.44962797164838    2.06024328000876   15.90824177059294
C         4.49203157846255    1.57150899367119   16.17795965236039
H         5.17043258806041    0.72361217555235   16.14671432294047
H         4.43790233193698    1.92093940193422   17.20708915719354
H         4.89364456191480    2.37979445616455   15.56851952410568
C         2.54669658727222    0.02366140531157   16.53668903912377
H         1.59029422122157   -0.31936886000611   16.14873824286947
H         2.39865056510949    0.35385528944033   17.56278013818963
H         3.23832085008908   -0.81256055218126   16.55481448228925
C         2.35807382079195    4.75598055715497    8.76549084493215
H         2.40608873218186    5.81806815806891    8.50988403732812
H         1.63743392869457    4.26295676377171    8.10158140964071
C         3.72646397958321    4.09220411101651    8.63776969830585
H         3.89743443152837    3.73958106997196    7.61685065202700
H         4.51988398012056    4.80094751032853    8.90472788873537
C         0.78065843476876    5.14350557767581   10.70352011595753
H         0.71574560677668    4.70148591478546   11.70823318083657
C        -0.45897556820458    4.73023636759238    9.91107984587070
H        -0.47303777711457    5.21291505803400    8.93649159194677
H        -1.35925677067225    5.01710654233627   10.44954498794091
H        -0.46202486653896    3.65072300031454    9.77106891286361
C         0.88006449494688    6.66126863041059   10.84143101935659
H         1.78649847039709    6.92469122209877   11.38079107171893
H         0.02230539184186    7.04219214715155   11.38962222472059
H         0.90228116429819    7.13709361963461    9.86382923855502
C         4.79438295788762    2.05777351796516    9.69378187776091
H         4.50611825478640    1.39877849270034   10.52494773934402
C         4.96347690133502    1.21633192255556    8.43045970514183
H         4.01264824460409    0.76958252748967    8.14983699871072
H         5.68452477868568    0.42288375431744    8.60813142892860
H         5.32356481747451    1.82621592685403    7.60503610153819
C         6.09018064642997    2.77154816656844   10.07334962827596
H         6.44905650779429    3.38817565128953    9.25240462590778
H         6.85820616363996    2.04262502231359   10.31770932124637
H         5.91572937862157    3.40183972209417   10.94467521737515

