43
CSD_code = QORJIS | q = 0 | S = 0 | Stoichiometry = C9H27Cl3P3Rh | MND = 6
Rh        4.16213600675801    7.00174097910052    3.23382082824267
Cl        6.25516052042919    7.87653279296361    3.78444197921308
Cl        4.37311549322114    5.45065661239544    4.96572085638661
Cl        3.15977106639332    8.50078453864283    4.71655894395554
P         5.51227933572736    5.69061988957190    1.89899325784986
P         2.15640073455323    5.88289999587772    3.01021416664062
P         3.78867184838277    8.78117726212652    1.81289539961073
C         4.76918957600452    4.79155968035771    0.47232074476790
H         4.37184815634567    5.50605803171687   -0.24570137752401
H         3.96195151222598    4.14740708385720    0.81187136961456
H         5.53160468010087    4.18207027243660   -0.01073584680944
C         6.93471810515024    6.47965895840756    1.05579625768840
H         7.65034156577049    6.79444500851273    1.81193825332270
H         6.61894727779967    7.35738652350036    0.49671994946467
H         7.39207890680287    5.75730766645694    0.38005712120324
C         6.36704410189464    4.34109090828432    2.77216820489346
H         5.63805591922139    3.64854121933282    3.18914425143564
H         6.93043525333469    4.77968712701023    3.59526541068171
H         7.03934312554847    3.82643001525369    2.08518348570315
C         2.14075203629336    4.06722537802767    3.25355803071542
H         2.36409665528002    3.85924451944856    4.29752241568433
H         2.89809218631152    3.58547089290824    2.63944688310245
H         1.15504121422994    3.68189692235255    2.99368159385389
C         0.87158724445944    6.37631526305720    4.20209031307941
H         0.62166526845709    7.42681675930587    4.06497180355626
H         1.28034255253835    6.25138897013354    5.20434359353814
H        -0.01098749873488    5.74947054772896    4.07237720512801
C         1.23674094039749    5.98692362157040    1.41652408106593
H         1.82586067764543    5.53455024895579    0.62148340581489
H         1.03924334964634    7.02501967827940    1.16134845242472
H         0.28977656390056    5.45689750675633    1.50867227565126
C         4.98676679741399   10.14271609531923    1.97115013260289
H         5.98446258333555    9.79064039676650    1.71518484071534
H         4.99441126692191   10.46091229640063    3.01324733014388
H         4.69175684973640   10.96983829333996    1.32500199840991
C         2.21910735391566    9.71182523295099    1.97656393930033
H         2.21680605112593   10.21471038571040    2.94095125170974
H         1.36318516542512    9.04200174244405    1.93702226670687
H         2.15342726966549   10.44130870625726    1.16960772720781
C         3.78845318603693    8.50074522542794   -0.00864147964844
H         2.96772051688186    7.83936017204447   -0.27843508708968
H         4.72451793870449    8.04541977997408   -0.32179636097367
H         3.66658064476949    9.45324679903801   -0.52244986905844

