90
CSD_code = QORLIT | q = 0 | S = 0 | Stoichiometry = C31H42BIrN6O9 | MND = 6
Ir        6.23259841971656    1.86406856861613    9.70179875152574
B         6.49985860242116    2.13618458252889   12.80470961068198
H         6.56271153146137    2.17272098050542   13.97965499571458
N         7.79858158046520    1.54425566322980   12.21911232784959
N         7.94059761580164    1.36167410751542   10.89735583996384
C         9.16952157026062    0.90484435285077   10.67240173225169
C         9.84099936226607    0.79173808771105   11.89256914097122
H        10.84421895911052    0.45116347919148   12.04969985243111
C         8.93629219387738    1.20750526498806   12.85265593393097
C         9.70223188218748    0.58567169594269    9.31852766345192
H         8.89940420264359    0.56569284274301    8.58663742768101
H        10.19125613045451   -0.38683478767651    9.33606889474582
H        10.44870522463833    1.32207305483083    9.01683073476219
C         9.12799646730044    1.28693152532032   14.32384072897867
H        10.12753776158051    0.94432769001554   14.57811354515907
H         8.39958600869085    0.66492522132480   14.84060554378244
H         9.00650659199282    2.31039583002270   14.67393991898343
N         6.29621786749083    3.52373079907693   12.20897789317667
N         6.17065031253391    3.65975280711184   10.88120246960634
C         5.95291047011783    4.93889002672484   10.61285825691658
C         5.95225922996945    5.65727058429105   11.81402038884571
H         5.80414275076844    6.71122762604537   11.93564465754748
C         6.16530946164345    4.72282777538209   12.80793200619561
C         5.73293940407259    5.47307749442777    9.24469071602620
H         6.32454236571849    4.92576754437167    8.51656340106823
H         5.99118518491919    6.52961127158887    9.21081507686668
H         4.68368317785177    5.36211168984678    8.97315932309146
C         6.25470032776144    4.92812260461919   14.27773010223681
H         5.46318824403205    4.38329114238067   14.78943299384902
H         6.15199027598563    5.98640209080411   14.50227611497134
H         7.21109571670042    4.57724993410067   14.66303133884249
N         5.32394863645643    1.24513544618001   12.34931490089162
N         5.08586435316355    0.94354953427186   11.05737401370815
C         4.01433418775189    0.14711779767681   11.00256277405404
C         3.55213181099669   -0.05707273922129   12.30362136643349
H         2.70664740181750   -0.64504417966481   12.59750938372630
C         4.40045321053552    0.65685308261888   13.12714736357159
C         3.43546269934413   -0.46970319000171    9.77968823934094
H         3.88634175073078   -0.05611842517850    8.88418530102150
H         2.36279984876655   -0.29488335720722    9.75182461222339
H         3.59592896341043   -1.54685539257765    9.80502625193809
C         4.34348337850503    0.78299188440431   14.60657775524551
H         4.22309418002824    1.82493742972344   14.89525236689952
H         5.25552437939788    0.40629006056171   15.06546746931916
H         3.49856018960599    0.21337940449483   14.98376215411804
C         6.55167030314501   -1.15239335065219    9.20135397115100
H         7.53008324558560   -1.55451670737136    8.93659742840440
H         5.80723384425999   -1.87123319976189    8.86366800451622
H         6.49998435941477   -1.08562323148023   10.28318286665615
C         6.35406380901766    0.19062145470827    8.53586613366929
C         6.39166502976973    0.19854302403238    7.18399285498071
C         6.58508241284795   -1.07274408084491    6.38483260303342
H         5.80844352238594   -1.79065512370300    6.64257907369120
H         7.54994744665998   -1.53487706752342    6.59893188033032
H         6.52436233807831   -0.87406205486880    5.31954746233865
C         7.56716593515053    1.42206159286389    5.39962029598848
C         6.43317941687879    1.42258284738231    6.39236429124614
C         5.66566543114125    2.53722527918047    6.47331432397193
C         6.06508301667274    3.66107425706325    5.61110230343877
O         7.55275443107578    1.00831677527950    4.27576929068858
O         8.70629256059620    1.78074271938548    6.05270210341077
C         9.86562139385573    1.89327700443282    5.23709544129411
H        10.70402254594192    2.05284139293497    5.91091267625823
H         9.74647569227455    2.73783734144222    4.55683327012999
H        10.00584783314664    0.98102778921090    4.65515759173452
O         7.09697739608729    3.67505475493625    4.96614652468959
O         5.22599962171532    4.69835242299930    5.64191006553689
C         5.58682258750335    5.82256289507384    4.85791621219572
H         4.83078836976772    6.57960686589581    5.05059717917900
H         5.60711884892931    5.55690488487456    3.79845564560873
H         6.57551597684323    6.18537761433213    5.14780343533935
C         3.35277807494813    3.42981704777203    6.77441196075786
C         4.53015414795608    2.74148175698635    7.37524726755130
C         4.56902810672800    2.44161431826642    8.68531927972668
C         3.34730363821364    2.73349571099830    9.47592433188003
O         2.71985888755263    4.31747538552863    7.29026893637121
O         3.06635070225616    2.92486637413961    5.56579502382993
C         1.96976349250243    3.51966843690596    4.89336322607669
H         1.90838471544009    3.03700348724170    3.92104695801919
H         2.13225425384337    4.59406459681859    4.78113940872669
H         1.04801607218009    3.36203240333714    5.45818654742965
O         3.30609532475496    3.36395546611035   10.50563768463342
O         2.25378240737864    2.15565659853731    8.93995245259296
C         1.02714066555553    2.44142553243925    9.59020127206339
H         0.28727499718942    1.76492983678565    9.16781405429533
H         0.74448270534253    3.47986568392172    9.40422233734406
H         1.12532166493246    2.28826704512998   10.66770433142208
O         7.76423849884184    3.04002145041876    8.43600313150081
H         8.51526535314283    3.16070526209937    9.02622354317293
H         8.09454503757322    2.62999860021402    7.61851398852799

