53
CSD_code = QORLEP | q = 0 | S = 0 | Stoichiometry = C27H21ClNPPtS | MND = 4
S         4.11315216847707    1.80090873233926    7.52340850470618
Cl       10.50101015502621    3.01993632856221    6.03980717654159
P         8.49282245832244    5.43266207961748    6.65644181718139
N         7.92827814046477    1.16878992177740    6.50784626800403
C         8.83809584807915    0.24506702597806    6.22673724457918
H         9.82985659455740    0.60729655834360    5.98496890370568
C         8.54939153167456   -1.10815465885487    6.24129279924043
H         9.31973840175203   -1.82434492522232    6.00610661888169
C         7.26047985158675   -1.51781267353222    6.56275881374580
H         7.00692642496874   -2.56719778722494    6.58284595851712
C         6.30895650499440   -0.56314482781694    6.85561015989764
H         5.29497799586924   -0.82958787167946    7.11030682447143
C         6.66715153251556    0.78583048370807    6.82105976438836
C         5.79935206712449    1.88826517003517    7.09003651093640
C         6.27506630999803    3.18220203557035    7.00546853036790
C         5.24330301132290    4.10681955449319    7.29591031071910
H         5.36937411518935    5.17707431975423    7.28868491220600
C         4.05204635200376    3.51539479992827    7.58704074826617
H         3.12263491549626    3.98918288183911    7.83917897934856
C         7.62786239901544    6.39713504141022    5.38323499069573
C         6.72692254199638    5.73064287499742    4.56027878329603
H         6.58786097861206    4.66267906164879    4.69799808158308
C         6.03734069633508    6.42245822988009    3.58101953242148
H         5.33825572268900    5.90289523553527    2.94267208169081
C         6.24929241037907    7.78182373834664    3.41709439366950
H         5.71094487644141    8.32433247569253    2.65402936881441
C         7.16306114278025    8.44579765325529    4.22081518304579
H         7.33824275963886    9.50247895039422    4.07987618838914
C         7.85733882973594    7.75769757552005    5.19925922023596
H         8.59053857629227    8.26833842746152    5.80928668244237
C         7.84957694112277    5.99987705892239    8.26189889971184
C         7.25316068035416    7.23071436210354    8.49759296736462
H         7.13310253734054    7.94016658876989    7.69174550496691
C         6.79280060108154    7.53807935981971    9.76711011738304
H         6.32250140991089    8.49341352020543    9.94930906534952
C         6.92868183002005    6.62612170233124   10.80043510659143
H         6.56558385690858    6.87253001577753   11.78719703427526
C         7.52196004121567    5.39440222683002   10.56832885407115
H         7.62161672909120    4.68097350102413   11.37281302272164
C         7.97613534950921    5.08155558108999    9.30203031923507
H         8.43059405592037    4.11364243570653    9.08929764562458
C        10.15923754989231    6.15647301708487    6.60237382804939
C        10.83313853150789    6.55805167625210    7.74877160441556
H        10.35022953084328    6.48531110379734    8.71352922762656
C        12.12480774916717    7.04642469485434    7.65161663301895
H        12.64759481510180    7.35842514684135    8.54414164972522
C        12.74901784776855    7.12587710205010    6.41861561875894
H        13.75987295552836    7.49995790327848    6.34867408302967
C        12.08212218675270    6.71500846480913    5.27451792820127
H        12.57375542749210    6.76455930209809    4.31411301417130
C        10.79251285956681    6.22984045796488    5.36412987524392
H        10.26892068968601    5.88978133830521    4.48028766092366
Pt        8.23410051088315    3.19954702832912    6.53859498755046

