82
CSD_code = QORLOY | q = 0 | S = 0 | Stoichiometry = C34H41N3O3Zn | MND = 5
Zn        8.13450232653722    5.26984193076594   21.86282563101486
O         9.29490709710648    5.80224199369460   20.60024744141839
O         7.67948526057803    6.09601815543665   23.47987860573768
N         9.14463252043642    3.75225779238440   22.98661465808002
N         6.14675610132915    5.73237166884952   21.18318689295001
N         7.51861128367106    3.44262460091575   20.90251392028080
C         8.36984046625265    2.67687323149836   23.07124775358238
C         8.49903626901278    1.75476889395506   24.10012801868759
H         7.84605240630611    0.89694845413931   24.14203393723490
C         9.45477423946668    1.97538041991535   25.07698753523673
H         9.56021531127452    1.28834785541173   25.90328357704281
C        10.27472327518428    3.08717381027411   24.96999663279745
H        11.03756516547470    3.29520712517944   25.70239582938903
C        10.08611621347842    3.94698138024920   23.90234104341181
H        10.70568040656334    4.82023367384160   23.76497713291367
C         5.48798475212131    4.75693482403609   20.57032285454779
C         4.12075012971807    4.83299282229612   20.33045119089261
H         3.61234489926535    4.02064548951695   19.83368848715569
C         3.43330582061934    5.96224860344351   20.73929898714556
H         2.37029705490386    6.04697034507579   20.56888843557494
C         4.13377190377107    6.97797802238473   21.37250374401878
H         3.63616052630617    7.87448489934030   21.70512227238892
C         5.49298100744651    6.81540496659025   21.57708621755888
H         6.08742498645567    7.56137141953838   22.08187559545651
C         8.91315396327874    4.09575674358089   18.98976813044232
C         8.83428692023322    3.70676621659217   17.66280563011573
H         8.61186510374474    2.66896274182086   17.44983721169134
C         9.03997444980906    4.60241843771263   16.62591600402562
C         9.32338134836663    5.91810916119993   16.97565187073012
H         9.48158339149238    6.63124263160511   16.18772155476364
C         9.40845135367167    6.35834262307737   18.28531192924062
C         9.20058181144624    5.43205496494973   19.33849656573896
C         7.32082834268439    2.51552451729809   22.00531792309049
H         7.31088023953838    1.46993623877941   21.65358562770268
H         6.35383006657236    2.72897659140468   22.47348221334221
C         6.31522630598549    3.59596668495922   20.09877455570588
H         5.71515100141546    2.67594712972597   20.07137341765872
H         6.63102469974360    3.82894406087700   19.07293806033444
C         8.67474276787054    3.07440701190260   20.06971229875908
H         8.51494010569939    2.08060038204391   19.62249387314520
H         9.54939667031727    3.02277392271971   20.72139306621060
C         8.93851378230927    4.12414754998665   15.18455146108637
C         9.98033664028594    3.02278578376494   14.94310737161714
H         9.82181870564076    2.17686463121701   15.60635582481813
H        10.98091210862374    3.41045984947908   15.12157361224318
H         9.92398704169504    2.66698172536071   13.91586592723893
C         9.18761508586632    5.24201553542743   14.16864111603684
H         8.45499053848967    6.03853720417933   14.27588074879055
H         9.10432973586364    4.84166257539859   13.15965166201365
H        10.18559619459132    5.65769489404988   14.28405068978904
C         7.52931891471751    3.56483025403706   14.93819088617351
H         6.78276422038428    4.33365171396716   15.12827826557410
H         7.32134784066799    2.71900935622003   15.58818058049184
H         7.42880147242941    3.23311053011790   13.90645052345863
C         9.69946114992407    7.81898360386395   18.61366902221602
C         8.51219347043629    8.40003688883774   19.39527932232315
H         7.59874022259286    8.32141278160910   18.80704055950550
H         8.68968282554658    9.44916872785323   19.62446334771822
H         8.37304224369800    7.85989398470659   20.32780549675898
C        10.97376041169287    7.90147632003088   19.46380577181023
H        10.85739375552650    7.30694212973676   20.36380658021892
H        11.17454049322446    8.93401202984776   19.74390253210553
H        11.82437478339891    7.52086476219166   18.90154895301340
C         9.90972558035443    8.68903622639999   17.36928299137976
H         9.01884715140790    8.71253695585454   16.74509303783838
H        10.75236461402801    8.33637733112549   16.77877273579091
H        10.12525465715314    9.70933542210728   17.68186701361811
C         8.52855453451198    6.35049979772464   24.47057564195412
C         8.33675554785412    5.81059671164293   25.75972116227980
C         9.24373058427853    6.11664408694503   26.76328304226990
H         9.08870190081381    5.69469592580937   27.74789924048641
C        10.33004762763058    6.94112258717321   26.53365413753644
H        11.01956390235124    7.16674373890728   27.33394887081561
C        10.52723534508513    7.46836588117095   25.26661100468681
H        11.37669621691678    8.10790677050787   25.07099053407656
C         9.64343034315037    7.17148614069643   24.25194253525939
H         9.78927852909799    7.55240973662338   23.24883741700182
C         7.15307043825831    4.92640882733269   26.07771777132025
H         7.43870405117102    4.17094483603684   26.82017210468504
H         6.35970729651946    5.55129181641208   26.52924410317035
O         6.62517159975337    4.23567801854961   24.96933332486859
H         6.75242047691278    4.87434391810570   24.23267674874737

