83
CSD_code = QORMOA | q = 0 | S = 0 | Stoichiometry = C33H45IrN2P2 | MND = 4
Ir        7.20182078112622    9.48977586844736    8.81183832507779
P         6.69789477822755    7.94819897032115   10.43201060714216
P         8.40866081527998   10.91342913148995    7.48199520772698
N         9.10249052698264    9.02591243229236    9.46010806682375
N         4.39331006465353   10.02558260783153    7.73680366529016
C         9.34626444097886    7.78780220596643    9.98738953917505
C        10.58440187978990    7.12584372889750    9.91260476665286
H        11.41091077377767    7.60053998909610    9.40234363695859
C        10.74733942793685    5.86419880945575   10.43646676190277
H        11.71162625190550    5.38053126975422   10.35554962343039
C         9.69845418730124    5.18485200324963   11.05326858828167
C         8.45741878376070    5.80053492722138   11.08701387798835
H         7.61995953852382    5.27120760898007   11.52131504953150
C         8.27242447438595    7.06948329267769   10.56091409181021
C         9.91246194741034    3.81963350755933   11.63710413642028
H        10.54813858603502    3.87888593191081   12.52175687374978
H        10.40582343571175    3.16674812496382   10.91776878675705
H         8.96611846636726    3.36725302437919   11.92558286104442
C        10.10512684975969    9.94676816306233    9.34036275740629
C        11.23120801420972   10.00135899561363   10.18153740515969
H        11.32906682038182    9.28460837100928   10.98494320017355
C        12.18598565867647   10.97923625597280   10.02806195399914
H        13.03660705456509   10.99506697559592   10.69626112074068
C        12.07824356473157   11.96193666840229    9.04540915449493
C        10.94872206644811   11.95555058716814    8.24342412357948
H        10.82359889305707   12.73722903224602    7.50626100805065
C         9.97422613542456   10.97904370301291    8.38359229732128
C        13.14438181358496   13.00604366103376    8.89217483200782
H        13.31725264327925   13.51982240565301    9.83766366445595
H        12.86213582977422   13.74322926612177    8.14374854291411
H        14.08598521727918   12.54833505762963    8.58681010504470
C         6.38124573361313    8.60913347008009   12.14994883003375
H         5.38052678131256    9.05766599234430   12.12218364205063
C         7.40172026257806    9.71820479936927   12.39251889511333
H         7.21050915330944   10.22223508280901   13.33885924865787
H         7.35396209675616   10.45523681618435   11.58899605673937
H         8.40988344078911    9.30664891852669   12.42030110649460
C         6.44133061602291    7.55375895554814   13.24693355001878
H         7.41916922806689    7.07578259923340   13.26149033718089
H         5.67959543672025    6.78949721776637   13.10734544977629
H         6.27680314843739    8.01952384260647   14.21814140862885
C         5.43437989059543    6.60354542948472   10.19826400336836
H         5.55511328792023    5.83220961554524   10.96615661072870
C         4.02974861732191    7.19009954845964   10.27530339116915
H         3.95576958050186    8.04232735670143    9.60220475651746
H         3.79218256985421    7.52028291672794   11.28435997336906
H         3.29161370579344    6.44640287387917    9.97791646233484
C         5.69618078877394    5.99838961024061    8.82225939903536
H         4.96863188070818    5.22137282970591    8.59328459465747
H         6.69362534102536    5.56342429706686    8.77858956367240
H         5.62712085414098    6.77846910192124    8.06226261913266
C         7.94505942783327   12.70109935766344    7.25603214058079
H         8.77718006270055   13.25103887471522    6.80384471348882
C         7.66254152783609   13.25510601676176    8.64939291978653
H         6.87804215938278   12.66213582348999    9.12315055992213
H         7.33351138458218   14.29165643220677    8.59686354281085
H         8.55508574266859   13.20543491340151    9.27125328258721
C         6.71139020900823   12.81703890559745    6.36927031834080
H         5.90844184253771   12.20969615256873    6.78298551003363
H         6.91937532657407   12.48109769777172    5.35547434400246
H         6.37363801058009   13.85146923355220    6.32240287285150
C         8.86144075312449   10.30684935658296    5.77457612989212
H         7.93951532354808   10.35609733242627    5.18184584240361
C         9.95777604600966   11.10859637573111    5.08499221547617
H        10.87170382665981   11.08910669562984    5.67554977110947
H         9.65935851941081   12.14381192072337    4.93282225746645
H        10.17528934935457   10.67428023879302    4.10963032594971
C         9.26034320812962    8.84122335030946    5.92825598810766
H         9.44186844465119    8.38267262556711    4.95731514010256
H         8.46653931720767    8.28768292098890    6.43322484246329
H        10.16878277936128    8.75708522779743    6.52354786080207
C         5.49238103325498    9.84895740879964    8.16412637676371
C         3.21011937771107   10.25219555153723    7.14003801289659
C         2.02166264721321    9.84366602163468    7.75626850496481
H         2.06595789339765    9.34824019282393    8.71456768035242
C         0.81151765867652   10.07782715498482    7.13711036925238
H        -0.10284437286295    9.75948678471299    7.61647400561957
C         0.76111860453100   10.71745693484863    5.90778258807973
H        -0.18953893907500   10.89762189259930    5.42918313789975
C         1.93707463265970   11.12409446876411    5.29538180220938
H         1.90114948523969   11.62170035924566    4.33709287801340
C         3.15651306247839   10.89738067231463    5.89825375717657
H         4.07613351995954   11.20663925424591    5.42478577869470

