114
CSD_code = QORMIU | q = 0 | S = 0 | Stoichiometry = C45H60IrN3OP2S2 | MND = 6
Ir        1.32565044384551   15.11832870032487    2.72189244349271
P         0.58593265491886   12.96481102896164    2.19247810765693
P         2.60199596637371   17.09647559111352    2.53545145054205
S        -0.29433767558885   16.08831529840926    1.23194121632651
S         0.23598533369035   15.54519591051854    5.75667017051676
O        -2.57576551477628   14.99214132750824    2.13366907988670
N         2.80604609319601   14.48496832772448    1.23673721015043
N         3.36292022671614   13.81567710499621    4.63545118125254
N        -1.29677178952549   16.04647196042372    3.73636410290925
C         3.46553017289933   15.43411580442165    0.52090364884806
C         4.06858535611794   15.18538452061900   -0.72598772458579
H         3.98213460894195   14.19990245215268   -1.16041498819312
C         4.72530496257267   16.17927102367933   -1.41043979752625
H         5.17331445319986   15.95568031640050   -2.36903306356277
C         4.82217028533880   17.47399484911587   -0.90105145498195
C         4.18272645957001   17.75007267530200    0.29469433643957
H         4.22211471195859   18.75600541148812    0.69009536791229
C         3.49233114584226   16.76610362302654    0.99330539101990
C         5.57405343710772   18.53332020967797   -1.65110202196096
H         5.53585217038051   19.48431161515981   -1.12472905593479
H         5.15044502481339   18.67090309266017   -2.64576570261088
H         6.61882805523495   18.24682578828500   -1.77232789815415
C         3.12704921473856   13.16507069041910    1.23020650643229
C         4.39689007505949   12.65718110213428    0.89948766114332
H         5.18102740757528   13.34302647636659    0.61308930689473
C         4.66649917034703   11.31031820541918    0.98256055493723
H         5.65697348921107   10.95442876037463    0.73175284345854
C         3.70250136679305   10.39233356050396    1.39708009004929
C         2.45632891990620   10.87932825647099    1.75915534288240
H         1.70490177149922   10.18541775699526    2.11083423450993
C         2.16610838743910   12.23326035832200    1.69546425500819
C         4.02484683657057    8.92920333096822    1.47117050710411
H         4.86989196080912    8.75518737988319    2.13760048494593
H         4.29475761154916    8.54645189269887    0.48683648610586
H         3.17304210908387    8.36244618649260    1.83991626861325
C         1.91587701326850   18.82690993078144    2.40502131410325
H         2.73974776736246   19.51468526109102    2.63518211559325
C         1.34920134573105   19.14539920053879    1.02387028119078
H         0.58712232517249   18.41659046680645    0.75766594647293
H         2.11112014872055   19.12981072005432    0.25057905871214
H         0.89479667019651   20.13560114954790    1.03987681340600
C         0.81353097754451   18.98429047206296    3.45022198548557
H         0.50813282285155   20.02750569562543    3.52731792531112
H         1.13012547980971   18.63789532539388    4.43151441249376
H        -0.04756370108676   18.39525623955812    3.14151808014290
C         3.99836310322875   17.20577135683759    3.78119104959813
H         4.43553733374504   16.19850789425219    3.71695950556460
C         3.47425667756252   17.41616281998284    5.19881642612273
H         4.25160900025489   17.17614775488462    5.92314514926620
H         2.61400229164848   16.77728723050986    5.39720328523952
H         3.18506632694196   18.45364664557700    5.35233842977055
C         5.09644036917228   18.21026672194716    3.44930917550151
H         4.72576168722858   19.23299697138252    3.47349837282607
H         5.52694881088732   18.01163030934540    2.47085603022309
H         5.88972135427333   18.12897902271395    4.19151634537093
C        -0.49657315497413   12.73974061724075    0.68863582649115
H        -1.35331171704239   13.40295236786028    0.84912337303779
C         0.27244005520512   13.21448595694689   -0.54207882689395
H         1.12243259122700   12.56212882643143   -0.73850783427667
H         0.63773973755179   14.23033715491958   -0.40369231571733
H        -0.37760428159202   13.20600523711299   -1.41628196488988
C        -0.97736965105461   11.30603288301469    0.48503555835101
H        -1.50643166932197   11.23937740118314   -0.46557249875177
H        -1.65970011981271   10.98566559469064    1.26910608506349
H        -0.13200627476669   10.62044770088545    0.44315920403134
C        -0.12532231371499   11.82006494069907    3.47199561814874
H        -0.24748775618737   10.83752665674566    3.00168613641428
C         0.80982288441770   11.68986926240396    4.66911327413991
H         0.89690936284913   12.64637968479785    5.18137254001952
H         1.80299460706792   11.36298368095402    4.36574435489227
H         0.40759459594432   10.96389842599917    5.37459600527159
C        -1.48219331487874   12.35100542419054    3.92293222327479
H        -2.00215138375725   11.60754943906282    4.52635946466087
H        -2.11016428188291   12.62216127320650    3.07665743957521
H        -1.33231772107420   13.23885996970774    4.53334135174546
C         2.54969171841410   14.34293480662207    3.98032602632372
C         4.28036157838164   13.15586754697011    5.37917463780449
C         5.12594730798481   12.23645857361223    4.75885043751409
H         5.03315121094715   12.06061778766045    3.69718398462729
C         6.06328058091161   11.56800341944382    5.52188411407709
H         6.72237900622095   10.85400586812593    5.05147875102661
C         6.16008953150500   11.80951991744291    6.88389793778548
H         6.89625163397426   11.28326551928967    7.47229355469312
C         5.31308388805054   12.72319258395261    7.49245201384294
H         5.38938112040626   12.90683147890945    8.55341706465870
C         4.36881548912784   13.40271772779653    6.74768201337164
H         3.69565710460352   14.11423723956799    7.20060675092106
C        -0.08376212727466   15.63235617710516    4.13234570985453
C        -2.30745716615637   16.40779015319329    4.68280608330867
C        -3.30121119263129   15.50104322954239    5.02174940895146
H        -3.29121396916642   14.51466569139580    4.58564970537289
C        -4.29165699454703   15.87161533573166    5.91468150272657
H        -5.06380128135101   15.16378344112436    6.17947918658213
C        -4.29160576149055   17.13922247697616    6.47006996006822
H        -5.06404608843369   17.42365650153379    7.16913617109402
C        -3.29537606086703   18.03968049685665    6.13271534868449
H        -3.28767173138619   19.02773050352388    6.56851834958330
C        -2.30445375572916   17.67967557152255    5.23787918333347
H        -1.51977189662982   18.37391268048918    4.98009866096998
C        -1.72523283564788   16.07950267566845    2.35684196176770
H        -2.25431920100730   17.02887056082699    2.18785545522969
C        -3.72805761083456   15.17180380252370    1.29753529560410
C        -3.32856447739410   15.56978727188057   -0.12549250379669
H        -2.80142123863146   16.52061985019554   -0.12877463435743
H        -4.21703097542787   15.65888719761903   -0.74501051246248
H        -2.66796946344700   14.82220506521630   -0.55722398534765
C        -4.40119883840912   13.79547576293849    1.29148383488133
H        -3.72109441753842   13.04538320353656    0.89664634048284
H        -5.29374327302962   13.81961833015481    0.67320160705873
H        -4.67881371558893   13.51506074607364    2.30440104657518
C        -4.69915824405877   16.20466192450285    1.88544249378892
H        -4.86900521829653   16.00308367934536    2.94098579991980
H        -5.64690110171521   16.14724104468681    1.35734181715061
H        -4.31911443597585   17.21856988053206    1.78350616812090

