51
CSD_code = QORQIZ | q = 1 | S = 0 | Stoichiometry = C22H22N4O2Rh(1+) | MND = 6
Rh        8.51561571011916    6.46339623735881    5.63917204668132
O         6.90207059818117    6.71190525908443    6.79141087185849
O         9.73955345666940    6.26835528300260    7.20700710523235
N        10.23106274354052    6.49290527689609    4.50569154441170
N         8.86797023028217    8.40004755998243    5.63035612342728
N         7.19323542539990    6.38155346970449    4.06869235582143
N         8.17173924527173    4.52572405938702    5.60236281839798
C         6.54468286287153    5.81361883911199    7.78153922882392
H         6.05350204677627    4.91153619485182    7.37773417031531
H         5.82363978714605    6.32234954308480    8.43365385780507
H         7.39393596989739    5.49780739635762    8.40218127360449
C         9.81255261476098    7.20589213866862    8.22251847242419
H        10.40677288513951    8.09198913566342    7.93889281464557
H        10.31563204391540    6.72478121829812    9.07074283681706
H         8.82593655062649    7.54531987742929    8.56569035917815
C        10.88158821041745    5.44650578214496    4.00730795908562
H        10.36792569731204    4.49439988069293    4.03764625723314
C        12.15247649112701    5.53792296618379    3.46936078795290
H        12.64075396102430    4.65885146727344    3.08189635171032
C        12.77961166565540    6.77581289817550    3.44862793246117
H        13.77362122526204    6.88472128512398    3.04448083179711
C        12.10728538611086    7.86921002568166    3.96269092358768
H        12.57775722943076    8.83825178812655    3.96520051166573
C        10.82901277625486    7.70221920132117    4.49236863935635
C        10.03974200275588    8.78570844092813    5.08316061971775
C        10.43291687152706   10.12233142183730    5.11124529846356
H        11.36953321344038   10.42624007207291    4.67427934325537
C         9.61217508067917   11.06170525969646    5.71056514516871
H         9.90765172765523   12.09838076484911    5.74764901701308
C         8.40888966020737   10.64523683273414    6.26286000964228
H         7.74238902806664   11.34543686783640    6.73908134737496
C         8.07623858424230    9.30354564636903    6.20117148135316
H         7.15915339384050    8.91229806495144    6.62723793479112
C         6.71591431400871    7.40474521266785    3.36714846705258
H         7.19382174818825    8.36385024287009    3.51852476324167
C         5.66257922563372    7.28148930426140    2.47954082555050
H         5.30824896270482    8.14268427817256    1.93717669774131
C         5.07491549341413    6.03539063024409    2.31174905085096
H         4.24734271531041    5.90186184065052    1.63319202318870
C         5.56693601879999    4.96652868164941    3.03773162826103
H         5.12080902697449    3.99188670350125    2.93058857439829
C         6.62894129230045    5.16519494886316    3.91821218339743
C         7.20966266545328    4.11024093003032    4.75190484705987
C         6.82351397954027    2.77178076482062    4.71278295807166
H         6.05349684150054    2.44434725806944    4.03421977136390
C         7.43391179511648    1.86146336749004    5.55768664965430
H         7.13953278071555    0.82386529286170    5.54439947056236
C         8.42546864714521    2.30808031582069    6.42019386998133
H         8.92466656640122    1.63090125884686    7.09366342076081
C         8.76262240843746    3.64997961776700    6.41037236263882
H         9.51699114273991    4.06434919653673    7.06983616515668

