87
CSD_code = QORVAV | q = 0 | S = 0 | Stoichiometry = C46H28CdN6O6 | MND = 6
C        -0.18638938794716   10.34532486902032   10.70721266545988
C        -0.58389897651897   11.52977586959571   10.07077640606627
C         0.36004136542692   12.27038151111547    9.39024496370287
H         0.10338367781510   13.18911326198180    8.88352486273857
C         1.65764758852247   11.77282659489337    9.38298309597058
H         2.44133263664841   12.30280640659801    8.86415377393330
C         1.95014832107407   10.58457854381668   10.04229047496680
H         2.95894457566846   10.19349615582312   10.02831279155269
C        -2.46372395879141   10.56056857574180   11.07401927735273
C        -3.69821405437777   10.17711939187452   11.55535117763884
H        -4.58407373386098   10.77067236734496   11.38317199941615
C        -3.74788152916750    8.98507392207660   12.26813285677614
H        -4.68454802768913    8.62746117194856   12.66690158322278
C        -2.06089219595157   11.76177302246568   10.25851680595575
C        -2.81538386492684   11.87622524386968    8.95232198934254
C        -2.88702801523556   10.95361414756503    7.93232527453486
H        -2.36686512360749   10.00971696914929    8.00315125713854
C        -3.64661350353722   11.27488984930873    6.81441201556726
H        -3.71959238297601   10.56928846655005    6.00075277093428
C        -4.31140448035383   12.48940378221561    6.73112411557855
H        -4.89572270445983   12.71560394717071    5.85129461578073
C        -4.23799362035951   13.41711931194729    7.75851148033374
H        -4.75782299145080   14.36069829943643    7.68720807093618
C        -3.48336032949238   13.10649522298128    8.87776845561955
C        -3.21607025723609   13.85396276998818   10.09806110230495
C        -3.63302101222711   15.10717442216217   10.51538549680493
H        -4.27269864153311   15.71260491792649    9.89100617399557
C        -3.21087692703011   15.56792341398305   11.75276736484616
H        -3.52671088988893   16.54302358609557   12.09338581245810
C        -2.38899869443851   14.79673014360765   12.56098623115541
H        -2.07364148352319   15.17729034368136   13.52064854076670
C        -1.96496918363705   13.53889713523372   12.15131430718608
H        -1.32449412382838   12.93546064757774   12.77754815466044
C        -2.38469043546441   13.08187320856231   10.92184130077680
C        -2.58818084634614    8.24489865827407   12.46645290250277
H        -2.62949422091997    7.31279718666073   13.01443491627114
C        -1.35293439707745    9.74403299456938   11.33023518521914
Cd        0.81859409307318    7.99343772801848   12.01271477030815
N         1.04894451532746    9.86959880264165   10.70255083261313
N        -1.39722024704417    8.60892607116755   12.00987449149293
N         0.21721522514408    6.58475057351782    9.52678753044936
O         0.91845662506510    6.24108950969005   10.50792722438444
O        -0.33251077231287    7.68722679145776    9.56419039234531
O         0.09707782703795    5.84145355265575    8.58150217863068
C         1.82362433636730    5.64152318422052   13.31817500404983
C         2.22118874618803    4.45712352961155   13.95467275148096
C         1.27724369236489    3.71640730464281   14.63507501072396
H         1.53395698102097    2.79775768203039   15.14191713362695
C        -0.02044045941380    4.21376037990965   14.64207841671978
H        -0.80413633682324    3.68368344591984   15.16079235772524
C        -0.31301800165626    5.40190616648379   13.98262497939020
H        -1.32192187697330    5.79272358655147   13.99624672607382
C         4.10102047161204    5.42650015518743   12.95160103249987
C         5.33552682309542    5.81010910903914   12.47043255260528
H         6.22140491390405    5.21656402320225   12.64254294374230
C         5.38518881525941    7.00229394298057   11.75788211779428
H         6.32186866219899    7.36003502958110   11.35926094923660
C         3.69821412323607    4.22523606518950   13.76702919907064
C         4.45275061740958    4.11083614017194   15.07320348670143
C         4.52456919526925    5.03355455042918   16.09309083803210
H         4.00443739595098    5.97746700609927   16.02223241403109
C         5.28432661904533    4.71238790216653   17.21091887268699
H         5.35746786363093    5.41808802558106   18.02447753325606
C         5.94910332274607    3.49786834989803   17.29424073854889
H         6.53357699219674    3.27176400599531   18.17399171132274
C         5.87548286834619    2.57002666487764   16.26698286218424
H         6.39529946873652    1.62644191069930   16.33830915887246
C         5.12068678430948    2.88054735439593   15.14780716620365
C         4.85324978158568    2.13297585822666   13.92761198252238
C         5.26997270408395    0.87963634759471   13.51044584251476
H         5.90954278399585    0.27417012872588   14.13490123491980
C         4.84770251240999    0.41878644133843   12.27314501304573
H         5.16332193998048   -0.55643282256224   11.93266895902509
C         4.02594649611351    1.19001885779513   11.46484017378963
H         3.71050204118567    0.80938708247955   10.50523500219656
C         3.60213346671042    2.44797400945244   11.87436079704753
H         2.96174709617837    3.05143566318348   11.24806060340067
C         4.02195206430249    2.90508549041200   13.10376843668026
C         4.22547399270319    7.74247141969750   11.55964727705211
H         4.26679832243545    8.67477266970441   11.01200372364220
C         2.99020057914956    6.24299384919264   12.69538432190176
N         0.58820414353608    6.11702931545574   13.32254064692251
N         3.03449312467351    7.37826117437118   12.01601740043122
N         1.42068406084091    9.40237801650505   14.49846395492465
O         0.72002877475600    9.74636873603360   13.51695014622313
O         1.96920354295135    8.29930116007742   14.46166831337420
O         1.54155511680519   10.14610172549395   15.44332252411715

