69
CSD_code = QOSCAE | q = 1 | S = 0 | Stoichiometry = C36H27IrN5(1+) | MND = 6
Ir      -15.19505277179650  -10.00875129185725   -2.79547594863983
C       -16.09407531436500   -8.20375599808694   -2.70801740214691
N       -14.07022211006864  -11.93139957631260   -2.68071229078525
N       -16.16806189668075  -10.20705215815286   -1.02805602302193
N       -14.35467639583401   -9.74566252081822   -4.62017938534307
C       -16.72104463183442  -10.63526648606828   -3.95595746958459
C       -17.30702634228916  -11.20504486867551   -6.25729653887178
H       -17.05494020608948  -11.25259262440295   -7.30556210175765
C       -17.97419871495883  -11.09327916123914   -3.56702502481441
H       -18.26872667635488  -11.05404234898836   -2.52741614807801
C       -16.39860691209909  -10.69300620744834   -5.32956695511670
C       -15.08549254500256  -10.17303235976921   -5.67802027894009
C       -18.54044811892723  -11.65772649577141   -5.83660009251028
H       -19.24453489764890  -12.05239366549573   -6.55277087723518
C       -13.15340036159208   -9.21268529994494   -4.83972210465456
H       -12.61395554036599   -8.85849478942285   -3.97177300761337
C       -18.87481476841885  -11.59738869689693   -4.49241062964864
H       -19.84370080982668  -11.94320228861488   -4.16405230951562
C       -13.78859745873385  -14.27349691151278   -3.00587724924098
H       -14.15407532517308  -15.18685191577178   -3.44497776334774
C       -17.30695983887969   -5.72999192393032   -2.17492438967589
H       -17.77034843230048   -4.77576816991953   -1.97711491662065
N       -13.42046276606164   -9.55031721098593   -1.63213314003385
C       -14.47441721426310  -13.08487963783475   -3.19136642015027
H       -15.38999827438199  -13.05003737191551   -3.76583159695591
C       -17.48363981805593   -9.12082667951490    0.64510205893737
H       -18.00154963322742   -8.23917276497020    0.98375125148308
C       -16.78561182449609   -7.97675983731041   -1.49916756598248
C       -14.57913179610246  -10.07846656318574   -6.97548729079561
H       -15.17079581207569  -10.42317666514782   -7.80700109554628
C       -16.82621082398429   -9.10805386768403   -0.58647546487230
C       -17.38421404688423   -6.74242299021252   -1.24123836891924
H       -17.90923305991933   -6.56901827424537   -0.31449452306380
C       -16.03868252467192   -7.16670883577240   -3.63031061987725
H       -15.53023444366901   -7.30293762147847   -4.57451740761224
C       -17.47512864084817  -10.26106007221289    1.42160526543923
H       -17.98202017702316  -10.28325579130643    2.37358452528781
C       -16.80647812618772  -11.38361979890375    0.94888735020297
H       -16.78088371186353  -12.30007604400571    1.51539133207357
C       -12.59959979631411   -9.08668005138123   -6.09780875363949
H       -11.62492082863600   -8.64326002192112   -6.21983213755975
C       -12.59658802238089  -10.57787256157902   -1.45288855409964
C       -12.20455719549586  -13.05426363092883   -1.69796683049806
H       -11.31976208769369  -13.02094510784710   -1.08483012384964
C       -12.63662223516967  -14.25467188626953   -2.23305692664314
H       -12.08200571294376  -15.16091785687883   -2.04588146099373
C       -16.63737572800060   -5.94387629206579   -3.36993359156733
H       -16.58317299054405   -5.15380952323277   -4.10406593915835
C       -13.32933071706527   -9.53562345388829   -7.19166744434645
H       -12.92990513179587   -9.45372791122311   -8.19039695200503
C       -12.93711918356143  -11.89478532302649   -1.95451397246012
C       -16.17270709903760  -11.30619156252489   -0.27486321646012
H       -15.65401190371829  -12.16994927464840   -0.66914667842129
N       -11.51526261021844  -10.17999028956281   -0.72865554538955
C       -12.87582992660896   -8.48263227216297   -1.01389164286430
H       -13.35942022754061   -7.52684815844221   -1.01921856388919
C       -11.69172110334988   -8.85827936719416   -0.44301864923020
H       -10.96694159129797   -8.30513338765774    0.11763142052366
C       -10.07804788089768  -11.09931647659242    0.99102877138833
H       -10.77462230370235  -10.74690931907395    1.73712579199005
C        -9.45890994321701  -11.32911765090153   -1.33129904994896
H        -9.67647855280622  -11.14999694536816   -2.37422111052922
C        -8.30196845223947  -11.98572296834967   -0.95135213122378
H        -7.60800208063027  -12.32230223896714   -1.70546741166666
C        -8.03208149580192  -12.20156201257307    0.39077479699976
H        -7.12742918115491  -12.71141761760327    0.68190499507127
C        -8.91758319734780  -11.75802139182027    1.35911874138000
H        -8.70559633045683  -11.92069182811127    2.40409260221469
C       -10.34847372741565  -10.89550783241212   -0.35518981556906

