34
CSD_code = QOSDIN | q = 0 | S = 0 | Stoichiometry = C16H11Cl2N2O2Re | MND = 6
C        10.25475410460272    8.09666695435693    6.49501018854061
C        10.89850914109614    7.17126464851436    5.63388376810674
H        11.22566182602619    6.23988661203735    6.06943511959464
C        11.07281401885945    7.44327705825812    4.30739025294110
H        11.55069287717680    6.71451648332966    3.66955255891473
C        10.63646477953299    8.65998936575772    3.75698934870482
H        10.78428782411941    8.85506819773865    2.70639409167051
C        10.03022847356927    9.58468300745687    4.55594244756830
H         9.69311457299507   10.52516650209622    4.14373275256114
C         9.81494797778195    9.34583029645934    5.93415384105983
C         9.21642922700500   10.35239773952525    6.71289988014048
C         8.36918426857087   11.37365389356202    8.64090661842742
C         8.48998633377759   12.69948249498394    8.27096844397114
H         9.08041377469799   12.98114160173575    7.41307683259846
C         7.87242181515726   13.70439149719710    9.02311592453494
H         7.98650245816802   14.73047697962800    8.70822242699734
C         7.13501411404350   13.40834558761421   10.13806482754014
H         6.65563453637425   14.18782395494535   10.70932921541883
C         7.01239606105685   12.07268921867863   10.57282425553188
C         6.30024898224191   11.68591471376470   11.72577618231772
H         5.79651926687024   12.43536241928594   12.31689972867877
C         6.26880006966927   10.35960414737728   12.06996333072357
H         5.73313542580070   10.01977725519817   12.94150373150700
C         6.94986784230045    9.42070779445824   11.29091454109102
H         6.94938661605172    8.37200844476677   11.55652546282872
C         7.65643943521463   11.05544463049479    9.82952514634745
Cl        7.20930084650394    7.92264554193760    7.50126485657054
Cl       10.67174573770178    9.37102329548141   10.20826949077449
N         8.90052095739137   10.27499201437750    7.98307117615687
N         7.63322906868816    9.75087939368572   10.20762852110537
O         8.41384081069947    7.24224321195665   10.17957728367823
O        10.14031721974139    7.83185143649065    7.73811523582988
Re        8.84684932411721    8.43587869544096    9.10600283314193
H         8.98734021239583   11.27731491140793    6.18496968442505

