80
CSD_code = QOSGIP | q = 0 | S = 0 | Stoichiometry = C38H33F5FeN2Si | MND = 4
Fe        1.14469225863074    1.44902532454576    3.89702299606340
Si        2.71893790343141    4.18800563292260    5.49086240838577
F         0.80819936300361    0.14512517662901    6.04152652506328
F        -0.58709035361362   -2.01786424722285    7.03142380813062
F        -1.79632197482434   -3.75349364335609    5.28059943622592
F        -1.58110195564745   -3.31283473672448    2.58831029494662
F        -0.21068550675646   -1.19998142804057    1.65421949997694
N         2.38472723988282    1.31134600374424    1.89006786459749
N        -0.40502537758055    1.87956791305811    2.22558875906834
C         3.62917401993290    1.58403590891055    1.78077091906260
C         4.52403084334881    1.40057678148597    2.93068755363856
C         5.77202459652712    2.02384331237069    2.96183968859743
C         6.60853637631491    1.86371082834934    4.05170527085975
C         6.22010560777215    1.07147114180197    5.11852845961163
C         4.98561607723307    0.43850798949933    5.09269924227573
C         4.14249494859051    0.60521219735075    4.01313922487230
C         4.26883168734769    2.08936465950411    0.53692542506486
C         4.02086948277142    3.38713987331143    0.09864677042162
C         4.63108161797376    3.86183258655806   -1.04857390794926
C         5.48623551506120    3.04554949557412   -1.77042248346801
C         5.73657232603017    1.75351082235167   -1.33825390297535
C         5.13529362707567    1.27703977521244   -0.18711544143845
C         1.49763126896438    1.41498319980326    0.75767131362922
C         0.31599100304984    2.34893013014452    1.07110516214862
C        -1.65751845891591    1.63849345646784    2.20638225933512
C        -2.29397861981358    1.20703681617966    3.46002106002342
C        -1.81047744331715    1.66673472589350    4.68761034451128
C        -2.37027606187848    1.20949240852775    5.86708988678227
C        -3.40097475387517    0.28317626893078    5.83717136395711
C        -3.88940922638688   -0.17011233744768    4.62163944060926
C        -3.34871907842173    0.29606493151903    3.43757921576495
C        -2.54614743425112    1.73558259090079    1.02431776253343
C        -3.61551096884734    2.62616940281975    1.03989593923630
C        -4.46606443824817    2.70911305100092   -0.04719246856995
C        -4.26754764469263    1.89356031805415   -1.14948922198602
C        -3.21455961336312    0.99419674477105   -1.16309031069778
C        -2.35185248259984    0.91586678546089   -0.08422670356133
C         0.36819665832236   -0.45620942392935    3.82748922984787
C         0.22464760089073   -0.75623875629419    5.18282545458180
C        -0.47397600136119   -1.82769418551328    5.70585155069105
C        -1.08971153667378   -2.70850471780221    4.82034425570276
C        -0.97733063074778   -2.47983927141614    3.45575727130285
C        -0.26111669142737   -1.38019754321474    2.99857137809485
C         1.83733637353710    2.83391872179921    4.57260089892138
C         3.79593807774666    3.49915194346471    6.90926789089589
C         1.45547450584597    5.43321251278574    6.21198033724313
C         3.85449739188188    5.10845624873959    4.25265493409314
H         6.08535783733804    2.64727409615832    2.13693116055388
H         7.56728802934332    2.36090292264546    4.06791099895947
H         6.87631674563052    0.94729977741976    5.96725309928376
H         4.68023075671612   -0.18182698613534    5.92132059073373
H         3.18066975966685    0.10180093939787    3.98527011677362
H         3.36201015856607    4.02203384951047    0.67330783716019
H         4.43898388338645    4.87166827585435   -1.37979878125700
H         5.95977924421067    3.41702149201081   -2.66684668571750
H         6.40561103443735    1.11634042465485   -1.89727385509285
H         5.33067784264067    0.27141821103175    0.15579121308055
H         1.10589960583647    0.41206700593246    0.56729110995883
H         1.99944482011423    1.77568627262787   -0.14957129876363
H         0.71902024940235    3.33242757605328    1.33608763296968
H        -0.31618206571686    2.44346171846645    0.17881326704401
H        -1.01057083178291    2.40412270817755    4.70763162276267
H        -1.99369963396695    1.57046005216018    6.81201630691027
H        -3.82477491514725   -0.08500788101371    6.75928952948918
H        -4.69202021790730   -0.89185895759069    4.59665850307194
H        -3.72354232643212   -0.06725328577646    2.49149770800664
H        -3.76940331219954    3.25588551398910    1.90426387108413
H        -5.29040698158696    3.40644322162967   -0.03147751873440
H        -4.93732336783161    1.95439662407182   -1.99420827716876
H        -3.06411209023197    0.34885529754461   -2.01564794327392
H        -1.54363177827746    0.19989949528198   -0.08448206461697
H         3.22124179853354    2.82489949387333    7.53529437269917
H         4.18338644263654    4.29335414065179    7.54089405056500
H         4.63939009401107    2.94229500797502    6.51406049106730
H         0.82410487306550    5.84983479321036    5.43335398766219
H         1.95376607189382    6.25884713298925    6.71171486354311
H         0.80811463029030    4.94956625270672    6.93631667067287
H         4.56762318025992    4.42162268285051    3.80729907115387
H         4.41428920612588    5.90041554487329    4.74098510365087
H         3.27932113893850    5.55731119724368    3.44892658966969

