95
CSD_code = QOSHUC | q = 0 | S = 0 | Stoichiometry = C38H51N3O2Pd | MND = 4
Pd        7.16427772457441    5.63694405059158   10.59949667544841
O         5.03555080183144    6.00657948823113    9.94303047754158
O         5.56626579803641    7.67113281136160   11.28726310003750
N         5.66333597472615    3.75572400935439   12.37915743014077
N         7.05243860304236    2.72076916012369   11.09927215075858
N         7.92729054256162    7.22811220350661    9.35483861429008
C         6.62657012249432    3.95449211573656   11.45936480702078
C         5.49595658775137    2.41269136951891   12.61106315894297
H         4.78888952807942    2.04033192051312   13.32348081604032
C         6.36828898511555    1.76254851257358   11.81019991908394
H         6.53294436619334    0.71450935994409   11.67487694838578
C         4.81009032727925    4.76536014527750   12.90568978976967
C         3.46328589437745    4.76363082179815   12.52331616255086
C         2.64569280641022    5.76690682890575   13.02489584243810
H         1.60339051067760    5.79233018505711   12.74354784603955
C         3.14564360145838    6.74190344960417   13.86643550341504
H         2.49616155410211    7.52614313921190   14.22718727924117
C         4.47140771254171    6.71358075460313   14.24684862438329
H         4.85093685565362    7.47737147708849   14.90661774372388
C         5.32498935303843    5.72035088569909   13.78521343414224
C         2.87387900109582    3.72084298780285   11.59888645543792
H         3.65602220199546    3.02489680411355   11.28513334656297
C         2.32149306860088    4.36289849469764   10.32581399839264
H         1.49353286638737    5.03185774106324   10.54549904802891
H         1.96740390186352    3.59123206047791    9.64463492167959
H         3.11327886192810    4.92875697170255    9.84073987132841
C         1.79159529452294    2.91547061399864   12.32423363693595
H         2.18613787154806    2.46635158995504   13.23408195462542
H         1.42280501902425    2.12066509498355   11.67912806152371
H         0.95248484209280    3.55006712463148   12.59729766787441
C         6.75665162734492    5.67628341134697   14.26353025575091
H         7.24215864629148    4.78847908000569   13.84438990260912
C         6.81847879268550    5.56476303209260   15.78965124749126
H         6.40038126447386    6.44792276365980   16.26492351987072
H         7.85320402721789    5.46408440007193   16.11033332648638
H         6.26310466376340    4.69462790620244   16.13573821233285
C         7.51511337162074    6.90715392764368   13.76358779371233
H         7.40399566890504    6.97461181442550   12.67183981354164
H         8.57088161068830    6.83204770138638   14.01681973298009
H         7.10995332452276    7.81402622648701   14.20426171198026
C         8.05648047168319    2.45554381018269   10.12310036724485
C         9.23293195149173    1.80090997068896   10.50583269937004
C        10.22431177289571    1.61194033811378    9.55094734416158
H        11.14274101648754    1.12042248968898    9.82755650579510
C        10.05133223373149    2.04484569784466    8.25433525999213
H        10.83775041252137    1.90512344392831    7.52754215561931
C         8.85608659363208    2.62452837521920    7.87312635549062
H         8.72532169041608    2.90449551894218    6.84109580977469
C         7.83175384063525    2.83510493505338    8.78665083860357
C         9.44068868925838    1.23194384475410   11.89175803292743
H         8.71434813732710    1.67844454072873   12.57658524303174
C         9.22052043483439   -0.28598265726481   11.85335694569089
H         8.24416114666452   -0.54373960893985   11.44995699083921
H         9.30181429226760   -0.70168783820604   12.85526530969801
H         9.97193734828536   -0.75574708704233   11.22275415092277
C        10.83889343411513    1.52053582260368   12.44189238466403
H        11.58632222838005    0.88435599416145   11.97483840758776
H        10.86012094400355    1.32747431085794   13.51232458600048
H        11.10719032618206    2.55715936089704   12.26562931480499
C         6.47599670133398    3.34287575323568    8.32885419706698
H         6.13939974492871    4.15014179278085    9.00217692464943
C         5.45853973059262    2.19600247545698    8.39494235738438
H         5.76466365441250    1.38418941450871    7.73578431251472
H         4.48215642918334    2.55254827216220    8.07587242052403
H         5.35980220009779    1.79881887312774    9.40137692341131
C         6.46915247195113    3.91459364193417    6.91039519721869
H         7.24336793975021    4.66804982592045    6.78135545766956
H         5.50545256313815    4.38424978540874    6.72403751471594
H         6.61067494266998    3.13331726260062    6.16497641266880
C         9.10540599081725    5.37157395139033   10.96402940319670
C         9.77709138604587    4.89465333752697   12.08231505160686
H         9.22994259899090    4.45172013893822   12.90530423008587
C        11.15987856023251    4.97960374494603   12.18362697933998
H        11.65579119937667    4.64372630656198   13.08522069079209
C        11.90855875668924    5.50505318801093   11.14728928735869
H        12.98526282582618    5.55719192190998   11.22183732971868
C        11.26336938798782    5.98949694674578   10.02233386321844
H        11.83568663455569    6.42569193029415    9.21387519338287
C         9.88177487842294    5.94077135268548    9.94584274805981
C         9.11964779752036    6.56048594572273    8.80578584184675
H         9.74167430627525    7.27857660162132    8.24318430479428
H         8.78983761279753    5.77262790988658    8.11374042554327
C         7.05034883497197    7.64732604598479    8.26824106679693
H         6.22091969519997    8.22810284257557    8.66992270875775
H         6.64155861804146    6.77460343144256    7.75559186963522
H         7.59361726241409    8.27302534838130    7.54296427592046
C         8.32995728086083    8.40749621543362   10.12078251423501
H         8.76631452781365    9.17154447758886    9.45990693228022
H         9.07051261186994    8.12790751393002   10.87164005495470
H         7.45542800545209    8.81864978743305   10.62616757886482
C         4.79347787956263    7.11428332855831   10.49812259431116
C         3.46807187927532    7.79489067247593   10.14794512639926
H         2.72759376248667    7.50612613151531   10.88997845771032
H         3.12591276768430    7.48545960235890    9.16345640893799
H         3.59028801961077    8.87450053120746   10.18465383961254

