77
CSD_code = QOSHAI | q = 0 | S = 0 | Stoichiometry = C32H40ClN3Pd | MND = 4
Pd        5.01494408726134   10.46093872220377   10.32119937458441
N         6.71625886105395    8.64966354799697    8.83526817911212
N         5.71581343929515    7.51382830759695   10.37006642399148
N         3.99626172560727   12.27229964887058   10.70766184344192
Cl        7.10624334583476   11.50738206367018   10.64920992349649
C         5.85262479977033    8.75653635866917    9.86280451735903
C         7.08417733244897    7.33963908059461    8.66277215304665
H         7.73126049845630    7.02365261617575    7.87016951048366
C         6.45326881256088    6.62596890225544    9.62277026303275
H         6.48048079982757    5.57837833464174    9.84383307713546
C         7.02446650390908    9.74170230735463    7.97765385176396
C         8.31138631468276   10.22364681188262    7.71995452104831
C         8.40083336898333   11.22599625455178    6.74886347660691
H         9.37323431142899   11.59563030726991    6.46747739856770
C         7.30101705499785   11.79169849309936    6.13918573562653
H         7.43641323051736   12.57772769784471    5.41107721223203
C         6.03001722562351   11.36067791614223    6.47557144692666
H         5.15453557934824   11.80657922389029    6.02759480475777
C         5.90076568229010   10.32453034137726    7.37757046907884
H         4.91576579777589    9.91388837062495    7.59275323736523
C         9.61480490822188    9.81369263864800    8.40447112008650
C         9.44041508213099    9.00241533294320    9.69099291118409
H         9.11628643907419    7.98283394453277    9.50912442048496
H         8.73658243960114    9.50522131920251   10.34749645761004
H        10.39638448707348    8.94904365511345   10.20819230152495
C        10.46609035308562    9.01306788624738    7.40880066834292
H        11.41845469652152    8.75062657419829    7.86409451652928
H        10.66281162853933    9.58839780977804    6.50730365626551
H         9.96027827699857    8.09321801170365    7.11967486288058
C        10.35915839330745   11.09259663202601    8.82844748588835
H         9.70277862294196   11.69317865744441    9.45347177231764
H        10.68875649417930   11.69138456235802    7.98533830388890
H        11.24109733203908   10.82881055506823    9.40761532051850
C         4.71621734187366    7.13156211427920   11.30567019756488
C         4.62208957387777    7.59122502331807   12.62355847810054
C         3.44334098410866    7.26663041173468   13.30158882010821
H         3.28900402816391    7.65392220156878   14.29582401424008
C         2.45751004858503    6.46618830961819   12.76437665758079
H         1.56566667267862    6.25456321329033   13.33463878165679
C         2.62906005602595    5.92080917160463   11.50504811058918
H         1.89079043129065    5.25920450376417   11.07942315264708
C         3.74948592771928    6.26944640818965   10.78488003020294
H         3.88171480260866    5.89041934968102    9.78160871736930
C         5.68285564854135    8.35894871213897   13.40856162649296
C         5.88278549244699    7.67985322259868   14.77646543068718
H         6.70022713274933    8.16432219367679   15.30517615448729
H         6.13499188830639    6.62986031616228   14.64353589723537
H         5.00212081687803    7.74353543430006   15.40794351749047
C         7.05472427691637    8.40646185466491   12.73100633825477
H         7.05275654957438    9.10967112297524   11.90075381136417
H         7.36662293263441    7.42410166881293   12.38327988371888
H         7.79561287317819    8.76015076905722   13.44475126665733
C         5.19097374783995    9.79958506358262   13.60436941779599
H         4.24683973791629    9.82514483578697   14.14505815381903
H         5.05118491637930   10.26566412575390   12.60954215935109
H         5.93192410941583   10.37288140180897   14.15776260490537
C         3.17057393014770    9.79746205274125    9.90009031392822
C         2.74604625424506    8.72367652956754    9.12343051485479
H         3.46841833353905    8.03746726757459    8.69550425330612
C         1.40252459715284    8.49677980113973    8.86530779321146
H         1.10706247329813    7.64508996393009    8.26761608489292
C         0.44228481352200    9.35741022866318    9.36311999476572
H        -0.60582659098988    9.18129188444449    9.16769301285695
C         0.83762869081924   10.46284719166326   10.09541375022005
H         0.09813316959811   11.16162885825537   10.46521138283225
C         2.18209785276179   10.68150105767695   10.35313777844472
C         2.63886921991803   11.89237607741403   11.12615370916155
H         1.94381569191378   12.73893413829317   10.99404603992441
H         2.66685073852674   11.64574642116706   12.19615814855928
C         4.56414766813055   13.22258143825736   11.65913648444735
H         3.96234966701863   14.14189572913821   11.70149733224954
H         5.58146416788643   13.47673353534690   11.36041647998310
H         4.60309131870862   12.77855221879602   12.65521757877236
C         3.96690478680070   12.88971799627586    9.37998311595128
H         3.45127839868313   12.23351143247885    8.67192613190318
H         4.99305626271467   13.05581660165645    9.03525943680772
H         3.44146064060643   13.85697526116466    9.40857622336098

