79
CSD_code = QOSHOW | q = 0 | S = 0 | Stoichiometry = C32H42ClN3Pd | MND = 4
Pd        6.38089304385842    8.79437167643292    8.45466165884172
Cl        7.59021864114087    7.21841353413585    7.18295773123331
N         7.90206471899262    9.08073756587594   11.00510935658364
N         7.18735929683452    7.06554299887233   10.59821824015791
N         5.28845228717004    9.37530330077601    6.72785985036856
C         7.24594147547377    8.31375563321403   10.12948479238116
C         8.31398400424081    8.32314536525825   12.18633949126616
H         8.05025290298792    8.83696988425464   13.11156000059825
H         9.40248241790546    8.18704294442566   12.16840912096604
C         7.57206904010409    6.99802899743897   12.00368493595355
H         8.18751004179722    6.12649232693823   12.22554579762148
H         6.66619287563878    6.94053953647170   12.62412050285679
C         7.94355810076635   10.49978674945739   10.95586062068460
C         8.59420346574571   11.24486455935582    9.96345127272433
C         8.34479956648914   12.62057302778491    9.96077352737743
H         8.76601890158735   13.22666721699649    9.17467640450108
C         7.58557647983027   13.25491237957632   10.92064193816943
H         7.42456955877234   14.32093063134534   10.86448924090804
C         7.05073885207855   12.51840106436386   11.96119817291459
H         6.48075748561945   12.99418185640640   12.74428530303176
C         7.22455468571202   11.15279371531341   11.95948345718256
H         6.76473288570604   10.56740006615713   12.74170031651112
C         9.57496318145219   10.72864574175802    8.91215524410893
C        10.83829685876782   11.60969445508997    8.92862548576042
H        10.63977350803169   12.63296962937560    8.62583185849824
H        11.57423193565475   11.20130980812729    8.23977945626988
H        11.27372542861248   11.62635834939061    9.92574281685260
C        10.04091802944331    9.28788927378980    9.13192451259858
H        10.87544305025056    9.07603551833684    8.46661659932436
H         9.25066821421432    8.58136475984851    8.88886314901112
H        10.37896352997581    9.13099393217471   10.15339032633876
C         8.89435392168352   10.80937760615600    7.53919855126258
H         8.60665549473800   11.83105603776843    7.29864487407564
H         7.99064417093736   10.17172259030771    7.55639122279226
H         9.56607389707266   10.44014179290958    6.76700700536584
C         6.41391775105865    6.05041895913953    9.96762036566265
C         5.06314604894610    6.36946285663299    9.78153604608903
H         4.69567577702913    7.32987995316861   10.13732008475167
C         4.18462153842916    5.46999139615717    9.21187693026443
H         3.14783542953776    5.73587062459886    9.06690590000785
C         4.65549321447986    4.21853060929621    8.85892698583039
H         3.98761039870239    3.48214558181312    8.43673804934251
C         5.98934021182831    3.91266236242222    9.03388360334712
H         6.31642719955035    2.92959819805278    8.73928989462561
C         6.92365834565401    4.81660020507522    9.54642026637821
C         8.38536789189231    4.36952982334026    9.57809499963394
C         9.39159643269885    5.52326648790727    9.62681645619128
H         9.42159589880793    6.03013518780469   10.58300468772221
H         9.15640287568331    6.23678068404279    8.84268775194036
H        10.39103683125081    5.13485380743314    9.44011091935183
C         8.58506821520840    3.43745844819002   10.78232914365171
H         9.61360294341235    3.08424401010452   10.81242273912146
H         7.92570267075744    2.57479756912826   10.71478301768526
H         8.36994861137311    3.95008077623341   11.71847170619012
C         8.71109882161350    3.60441496387348    8.28283153764646
H         8.42010562292304    4.20690255350824    7.42628816203315
H         8.21696259837051    2.63913096746668    8.22564853137207
H         9.78179050895314    3.42203431869122    8.22595268977095
C         5.09508812838383   10.03205179389896    9.37322468852839
C         4.66530503569106   10.07965847663263   10.69594372059679
H         5.10689377775956    9.42412823947567   11.43853673869929
C         3.66685003320486   10.94856111334925   11.10929514182190
H         3.36514069358420   10.96611229230831   12.14801270223460
C         3.05290071729695   11.78727113119399   10.19832813167504
H         2.27937083385886   12.47095843116996   10.51740038575788
C         3.42044356196925   11.72421409044857    8.86592236064852
H         2.92486472055371   12.35161616531919    8.13613614860761
C         4.41936115721189   10.85281463972444    8.46038048976246
C         4.80803790843036   10.73633443760716    7.00904474852528
H         5.62593932688967   11.43832629751846    6.79729018097239
H         3.96366865271188   10.99167181790374    6.34621092224387
C         5.93018605818667    9.33558624683837    5.41736108173809
H         5.21522370451628    9.59614446823575    4.62360486000662
H         6.32062222970546    8.33491849005882    5.23078303044647
H         6.76466307761258   10.03764179851329    5.38552387267056
C         4.17312325010668    8.42628548085489    6.73622557671993
H         3.60926859375646    8.51595804703025    7.66957834377684
H         4.56504960032125    7.40761743792743    6.64958355304837
H         3.48965115085924    8.61632423408333    5.89407001781492

