49
CSD_code = QOSJUE | q = 0 | S = 0 | Stoichiometry = C18H27Cl2NTi | MND = 8
Ti        0.56242918984542    3.41346689164032   28.06433526055085
Cl        0.91355003042711    2.14231510755324   26.33564744901665
Cl       -1.54714466858633    2.90622531572008   28.25922804522479
N         1.25091354106052    2.42276186265778   29.48515983288605
C         1.99280858890674    5.01289777770371   27.22507435978327
C         0.68778852938143    5.29148001996569   26.72345653012117
C        -0.15430611119683    5.59739981540062   27.82283408175953
C         0.62369168022413    5.48903238838089   29.01259171184570
C         1.95634831713254    5.13617415033933   28.64503844907847
C         3.19526299248610    4.80276911103568   26.35053570118201
C         0.32665244391077    5.35769807725154   25.26931216938589
C        -1.56213014633701    6.10870299216280   27.75501203678606
C         0.15801604246128    5.85092792552594   30.39170302161850
C         3.12170736229955    5.10287514126074   29.59350213789067
C         2.45741051832263    1.78201260116068   29.63950162146156
C         2.62238841558658    1.40979665692568   30.95263974373115
C         1.45798390534573    1.85475800302139   31.65389046641473
C         0.65625810666856    2.46207588503779   30.72503370609364
C         3.35462027472383    1.55097440826750   28.46519466700259
C         3.80333017569144    0.72591626630699   31.56290452732356
C         4.86909973472600    1.73805654960368   31.99119747344180
C         1.17664152837938    1.67585349688446   33.10683655878771
H         3.06365840864309    3.92922068770497   25.70818660136360
H         3.33680221473493    5.67351033453774   25.70723944925230
H         4.09924372529846    4.67023678049085   26.94182324280516
H        -0.74197700031871    5.20421287684352   25.12376228394229
H         0.58998580696715    6.33609350479279   24.85956105312838
H         0.86406106095826    4.59553034626596   24.70508353936661
H        -1.55975916942248    7.20130863411175   27.77796220351111
H        -2.05358560164823    5.78686439582209   26.83865021214978
H        -2.14985760281779    5.75036340584865   28.59937205822866
H         0.21190940886188    6.93327640085227   30.53268700802498
H        -0.87718095075091    5.54415399015024   30.54457772767503
H         0.77944363627003    5.37666417514814   31.14991297254735
H         4.00689330101463    4.68571882035298   29.11844205190075
H         3.35763153292447    6.11711244424186   29.92375047372409
H         2.89661956561288    4.50270721659328   30.47586258738423
H        -0.32525199654273    2.89690880099062   30.85957064839323
H         3.40821063096287    2.44589548264965   27.83932823443222
H         4.35447819649157    1.28969459311083   28.80283592332784
H         2.97355973636040    0.73181973663172   27.84907679969330
H         3.47929497380369    0.15612546354123   32.43565195438588
H         4.23752263201857    0.02490550398644   30.84687216832472
H         5.21838496178074    2.30794160085277   31.13281148663327
H         4.45889429333309    2.43588913571115   32.71770674645393
H         5.72009077302261    1.23136189970538   32.44144039493422
H         1.95913140525258    2.13266559526548   33.71282712331251
H         0.22394962576075    2.13248992426563   33.36467588867671
H         1.13302597995686    0.61675780572612   33.36119961503563

