59
CSD_code = QOSJEO | q = 0 | S = 0 | Stoichiometry = C26H28ClN3Pd | MND = 4
Pd        3.04740110849726    3.23481023865847    5.81262179326800
Cl        3.50797476826750    2.12645717740610    7.84758938034804
N         3.91593084865165    0.56144342157804    4.82983131283911
N         5.31052136656397    2.09490033478687    4.27218375382770
N         2.04607770517005    4.86632232908102    6.78763942069267
C         4.12327395582569    1.88763798727352    4.87440217776057
C         4.96063411144972   -0.06226212552430    4.20701044799934
H         4.99626572078499   -1.12310129176880    4.06507732810521
C         5.84500404169656    0.90254096655722    3.86206453695020
H         6.79075365990499    0.83582241930091    3.36488746571154
C         2.72299405527185   -0.07814396755899    5.34076835825602
H         2.65825577678598    0.12627598989411    6.41661229626699
H         2.81075507438375   -1.15463856486450    5.17463294636626
C         1.52252898409011    0.49326881843622    4.62687008347444
C         0.68602255947285    1.39554237249046    5.27809607343219
H         0.84938600433379    1.60555576981243    6.33412822381722
C        -0.39821427793548    1.93764051374207    4.60215427603260
H        -1.07977093123585    2.60382273766703    5.11168100673923
C        -0.62568654700390    1.61826881065001    3.27465952944791
H        -1.46253936018581    2.05472483498533    2.75001000623184
C         0.21569374894464    0.73451779977970    2.62172810197468
H         0.03869284455532    0.48198059617083    1.58662023359034
C         1.28287495885497    0.17012516979850    3.29748854375573
H         1.93685266367363   -0.52519364726139    2.78862740083769
C         5.96531320748145    3.38064509909764    4.15558554267494
H         5.18821417905909    4.13617687384024    3.97008782343931
H         6.65428670867345    3.34221467836322    3.30781920879120
C         6.70033328455196    3.68847778744659    5.43875140953839
C         8.02347898780592    3.30876151391635    5.61301759747834
H         8.56079560010722    2.83764738998690    4.80162169480620
C         8.65750794382391    3.53027269624739    6.82342408175047
H         9.68779218846507    3.23264183709471    6.95241509501172
C         7.96982635862296    4.12172133404553    7.86875207241999
H         8.46196391526238    4.28230992211314    8.81640767287179
C         6.64949000254119    4.50482169292058    7.69983245118428
H         6.11234346580278    4.95861425807316    8.51949287647884
C         6.01797622609596    4.29319443334196    6.48729652583584
H         4.97431495845947    4.59365142786309    6.33757882920963
C         2.43373974947530    4.15346143607819    4.15288843499477
C         2.28861401256210    3.65581145366928    2.86167499263587
H         2.68475830995570    2.67915243184527    2.60681746147155
C         1.64211543271007    4.38539928429428    1.87509539921993
H         1.54235999697341    3.97225512733462    0.88062203870309
C         1.12053814710510    5.63433911677526    2.15832569409951
H         0.61198596055013    6.20176726939271    1.39202954459963
C         1.25184470887329    6.15413950463005    3.43441034349778
H         0.84734161457196    7.13102801541811    3.66691851871499
C         1.90067986360067    5.42260559118454    4.41666329586587
C         2.08828370851659    5.96738153451058    5.81067599871647
H         3.07468597663031    6.44924288306198    5.87161821918444
H         1.33026292060825    6.72987094876813    6.05475255480199
C         0.65784915937955    4.46609461936075    7.00306516228810
H         0.08278199387038    5.28383548281860    7.46545398193885
H         0.62841413958453    3.60145247996353    7.66951243995022
H         0.20005674976937    4.21410413438192    6.04552787924693
C         2.60725675207837    5.29523750613245    8.06712891613443
H         1.99760959139174    6.09334156894667    8.51517169432817
H         3.62356926668493    5.66854055281494    7.93225155186626
H         2.64103207756690    4.44466942315759    8.74942829850803

