69
CSD_code = QOSKAL | q = 0 | S = 0 | Stoichiometry = C26H39ClN2Ti | MND = 8
Ti       10.16995238495707    3.63006671222337    4.36885236346918
Cl       12.03397013442073    4.79015979290837    4.32140496255626
N        10.15097496698385    3.13243004776087    2.54809375730534
N        10.71112498172059    2.01022181857745    5.16312580864870
C         7.87914636045939    3.95292537542526    4.68346763952169
C         8.47334321441089    3.58850185023949    5.93151329404697
C         9.36664381013800    4.62473270181487    6.31390286788593
C         9.33946529483317    5.61945118239497    5.30406394109523
C         8.42561746771786    5.21064635534713    4.29581389199759
C         6.67891243725892    3.25903348802542    4.09800996867665
C         8.03780760203542    2.44138261066244    6.79858442458582
C        10.10441841700720    4.72329389227749    7.61675495194579
C         9.99807203175413    6.96541474789741    5.36541697295158
C         8.00174745865075    6.10439217303323    3.16238477991140
C        11.15709977974013    2.46456743638937    1.87332125963660
C        10.75695263624582    2.19163076277004    0.58626895806810
C         9.43364175391814    2.70500720309473    0.44692486384589
C         9.11303765844165    3.26403066464586    1.65317384347226
C        12.47898850594632    2.13784657606898    2.49584818779178
C        11.51420480086666    1.44859873068681   -0.46747827801649
C        11.29812652039069   -0.06125402449986   -0.33945028337343
C         8.58039986561394    2.65116064707259   -0.77450246302075
C        10.23479108157310    0.72549825348369    5.07779520382514
C        10.84314342989657   -0.06235036186374    6.02927796489140
C        11.74086920464114    0.78214249571256    6.74784687778600
C        11.62716736715659    2.02817560713296    6.18848277287075
C         9.23687668871233    0.31648754687486    4.03922144823696
C        10.58080684768818   -1.50846185306333    6.29903346747243
C         9.45582881543834   -1.68687437320728    7.32140851258810
C        12.63413039484191    0.37802410019544    7.87154838368077
H         6.24374542825049    3.84120293130897    3.28775285421332
H         6.91658193521788    2.26583019722868    3.71370288523255
H         5.91544426279745    3.14606160684364    4.87031102554113
H         7.33784563191196    2.79755604202429    7.55904123188590
H         7.53866904531528    1.67662675686454    6.20740233972751
H         8.88394295954041    1.98116361114382    7.30910389243767
H        10.21013671112425    3.74392198051141    8.08125950194959
H        11.09770284015950    5.15139830036683    7.47334311473065
H         9.55744002350259    5.37040131735665    8.30710594780159
H        10.30474502717199    7.29868489141238    4.37409491845515
H         9.29877535984331    7.70104337998817    5.77285278577040
H        10.87810088415114    6.94340786134624    6.00541561973200
H         7.76166546806493    7.09538997978122    3.55227624640713
H         8.79557142717829    6.21972869442305    2.41948650118216
H         7.11493950449889    5.72215144182330    2.65956552733398
H         8.19021937537065    3.74776498102739    1.92086372760869
H        12.35615970149659    1.66901638587420    3.47594693151782
H        13.02154012072552    1.45146490368666    1.85042606460988
H        13.08477393986556    3.03957002124675    2.61965135630124
H        12.58091658895626    1.67006592128384   -0.39022518283272
H        11.17602089539064    1.77695644341645   -1.45231441369538
H        10.24168481961277   -0.30106231137564   -0.43703504112649
H        11.84744987000767   -0.59539339734434   -1.11219996597870
H        11.63671917185589   -0.41021761319849    0.63360386459643
H         9.05878472291890    3.17808201998347   -1.60051475964314
H         8.41609240372292    1.62015775777134   -1.08707798337255
H         7.61485876807350    3.11422627628689   -0.58252926742973
H        12.17547681639319    2.92796041211624    6.43340183987196
H         8.97792752366584    1.16822851139731    3.40652556918714
H         9.65464313259711   -0.46561233558604    3.40468044649329
H         8.33165254033533   -0.08053252422346    4.49971486406823
H        10.30361391519423   -2.01063883323309    5.36949379574026
H        11.48904533937124   -1.97868550181831    6.68135345720610
H         8.53522934611829   -1.23912511763633    6.95385822940995
H         9.27531150080126   -2.74235757255055    7.51402981760864
H         9.71693973365088   -1.20429267706930    8.26033857598072
H        13.31587062109329   -0.41143228638190    7.55497278338623
H        13.22224400573849    1.22827973056494    8.20924542935705
H        12.05395672485283   -0.00097434674936    8.71316512437916

