43
CSD_code = QOSKIT | q = 0 | S = 0 | Stoichiometry = C16H25NTi | MND = 8
Ti        1.29774288558776   10.09231600875554    6.48570559089307
N         0.62075803280029   10.32987428287531    4.74776816927928
C         3.44521257333981    9.89714644518055    5.57349462139902
C         3.45141246181827   11.00441492236995    6.46173281398008
C         3.19302871783010   10.51974328533758    7.77334127311392
C         3.03266848172228    9.10733405911644    7.69353251884936
C         3.19353654750408    8.72438626380699    6.33351510694485
C         3.80432471905865    9.94770340821347    4.11593332589446
C         3.80753649019721   12.41208190752385    6.07809959283892
C         3.31119627730257   11.30525016384632    9.04903638871770
C         2.94271473626974    8.18176546375589    8.87410909345976
C         3.23745547758819    7.32139993940348    5.79774457977962
C         0.33620486912106   11.64159157666711    7.46056943931023
C         0.00654192055411    8.63298339986619    7.17751569257195
C         0.59513335168957   11.50498937491440    4.05459498423939
C         0.33960067020368   11.26423749769552    2.72857896640597
C         0.20861124817746    9.86450777141233    2.59306658067415
C         0.39138304792962    9.33349674900140    3.84431089021631
H         4.89072627451369    9.97526221969692    3.99639756196472
H         3.42825606906245    9.07262524737393    3.58764631114300
H         3.39080822856136   10.83592387727621    3.63628361719050
H         4.89325808864488   12.51851932349363    6.00582145925878
H         3.38315333076432   12.67350218607200    5.10721044168796
H         3.45109430558490   13.12827629478733    6.81800693226181
H         4.33432298835679   11.24539886196355    9.42994596467567
H         3.07387173716875   12.35666682779597    8.89323978220717
H         2.64550606807614   10.91346732096573    9.81799711641030
H         2.47346966423558    7.23646740366360    8.60516947979479
H         3.94400681730069    7.96327255546681    9.25499156075256
H         2.36812049074568    8.63114260472634    9.68413802369400
H         2.77116066813192    6.61946254951574    6.48794029946306
H         2.72980152156321    7.24915295750944    4.83408240982280
H         4.27450910779706    7.00794499137512    5.65205338020163
H        -0.69802798797266   11.75643874103731    7.10496048224215
H         0.29399291026896   11.48303724571539    8.54576593769946
H         0.85265850674604   12.59455860330133    7.28291366156436
H         0.31526203270951    7.63923376807653    6.82636488430020
H        -0.03042570127943    8.60193301245040    8.27396215010892
H        -1.01884812980975    8.80449777166475    6.81918961269553
H         0.74307855227723   12.45174251048483    4.55853607073832
H         0.25330605576195   11.99438814503352    1.94590948129425
H         0.00397298461823    9.32537552037247    1.68728726729690
H         0.35410290782402    8.29738694036756    4.15653648309384

