53
CSD_code = QOSKEP | q = 0 | S = 0 | Stoichiometry = C22H27N3Ti | MND = 8
Ti        2.64913601632891    2.36125506273792    8.34407711231324
N         1.03771888120071    3.24499906402062    8.79254390095960
N         2.36046946860826    0.54845031389364    8.80139646702197
N         2.29894018114328    2.17862316477531    6.49534367642809
C         3.92655386789687    2.96639881867726   10.18583849409864
C         4.70246005882857    2.08460801088593    9.38553992812609
C         4.93825425779634    2.71318926692478    8.12949140618351
C         4.29796387847177    3.98665628643103    8.15307945688418
C         3.67242681950958    4.13861420587369    9.42411271361304
C         3.59268647534334    2.75791330123163   11.63409039875826
C         5.33712033122741    0.80572696941820    9.85045881047713
C         5.88663753917347    2.17465558038273    7.09306245367686
C         4.40787992274245    5.09821353545530    7.14557610517164
C         3.03558911697743    5.40454805154580    9.92074655163790
C         0.49580927918186    4.21680136384894    7.99562041848422
C        -0.54696313477848    4.82825385203901    8.64080010664107
C        -0.65432729472744    4.21149906797956    9.90700201925904
C         0.33069683881464    3.26013176658137    9.95994191337468
C         1.83841562041552   -0.03273592387300    9.92025745793732
C         2.00562821369594   -1.39231131684708    9.87117217295009
C         2.67477369776134   -1.66993151538301    8.65858508860118
C         2.87589625264656   -0.46455635056799    8.03894178500107
C         1.12142001989900    1.57287364860162    6.12511359324294
C         1.01598521495751    1.54542713033386    4.76095816804791
C         2.18146005175393    2.16296241916554    4.25183633964628
C         2.93115070236508    2.53225444221794    5.33642937290277
H         3.38575163525608    1.70794207472673   11.84417812316031
H         4.43819886609909    3.06073179548513   12.25722999314412
H         2.73039680910969    3.35396588062226   11.93089510143948
H         5.54979163526551    0.14482122265258    9.01135460605309
H         6.27814788678587    1.02202868365224   10.36366302788540
H         4.69061962247618    0.27204118309202   10.54716719043367
H         6.11658909098778    2.92571549015167    6.33935331855147
H         6.82434667668374    1.88579702506558    7.57150257080601
H         5.48323194615414    1.29410819451940    6.58704169598329
H         3.44476878738926    5.32205405493068    6.67987740947069
H         4.75886173173448    6.00598167195162    7.64034228753073
H         5.11929337534850    4.85251653893039    6.35906123244577
H         2.55487793676929    5.94681569026692    9.10691250042851
H         2.28243025368752    5.19992298688568   10.68102092779942
H         3.79473738578646    6.05492196966180   10.36382641058760
H         0.87771510697629    4.40318630333689    6.99983737321410
H        -1.16400725267227    5.61923476652553    8.25937569823388
H        -1.36912029350689    4.44030968328786   10.67429933267021
H         0.56544613427264    2.58384570237667   10.76870598728110
H         1.35925041781033    0.55537877105573   10.68874535787555
H         1.68670539256235   -2.10591724006211   10.60670243628666
H         2.96527469882472   -2.63678831031923    8.29432801570993
H         3.34365793016979   -0.26362054914281    7.08305706959333
H         0.42574882032855    1.19681932489258    6.86767617599175
H         0.20657610010936    1.13511019739276    4.18803437161889
H         2.42945905104315    2.31277535332324    3.21842341078450
H         3.88596797731860    3.03018131838901    5.34517246358233

