28
CSD_code = QOSLAM | q = 0 | S = 0 | Stoichiometry = C11H13Cl2NTi | MND = 8
Ti        3.90930065973107    4.73439861927252    5.64310274194435
Cl        4.14952261152842    3.99122224054934    3.62257738383217
Cl        5.90599859322865    4.42050208406296    6.41895104629582
N         2.96639694853739    3.32961618626949    6.44237568657812
C         3.01496986432357    6.61914792384271    4.56838718187513
C         4.26256415310450    6.99922907036569    5.10379165046670
C         4.18536971126787    6.89768304884113    6.50801631843971
C         2.89725290290954    6.42798535792842    6.84496519110448
C         2.16951940319500    6.25473022346835    5.63866040122314
C         3.33454293713722    1.99140469074409    6.43303478864863
C         2.39566508710524    1.25352911735731    7.09776143165570
C         1.38615839010705    2.14696613473705    7.55287721383033
C         1.77134580711197    3.38954128588702    7.13473286675567
C         4.58127656149833    1.47547352329514    5.78965724374659
C         0.16734659567111    1.78293712542494    8.32677443293134
H         2.72183789497473    6.68836427101115    3.52776177819833
H         5.09734585102089    7.40025662254590    4.54257230112213
H         4.94500625153437    7.21743404016830    7.21121227671087
H         2.49797990559401    6.37181579597086    7.85057694591302
H         1.11098907125629    6.04098313190156    5.55132415387382
H         2.41404849771509    0.19150518295113    7.25042096612713
H         1.24799516038303    4.31838351251803    7.29735049969469
H         5.47346447699299    1.87536841098033    6.27691572596281
H         4.59688339124906    0.39198378331932    5.88257786588210
H         4.62134931533052    1.73277970783139    4.72859370330063
H        -0.43595270970648    1.06699669061150    7.76977496280523
H        -0.43603719879516    2.66429661082139    8.53057462763292
H         0.44375986599292    1.32176560732173    9.27457861344917

