85
CSD_code = QOSMIV | q = 0 | S = 0 | Stoichiometry = C33H47Cl2OPRu | MND = 5
Ru        2.35420685132568    8.86541258879137    3.18908905655899
Cl        3.87900499051364    7.18512667246014    3.59546809443900
Cl        0.62460025591332    9.84359845311699    2.01232198461792
P         3.88871381309606   10.48667287567354    2.56861661323994
O         0.81868399712516    7.26771794481002    3.71440627455377
C         1.93232967324919    9.34243665881411    5.01014195489460
C         2.48413119568947   10.41729636846728    5.64986648699992
C         2.98246682369587   11.37705351327027    6.22909848315200
C         3.56416272628257   12.42964506275985    6.83114911733975
C         4.10225874045554   13.37462098282499    7.36661296626952
C         4.74664392393019   14.49304757650765    8.00404262844801
H         4.40167483589899   15.42777188053122    7.55966688457425
H         5.82850762836260   14.42329219121197    7.88023808584594
H         4.51436488435660   14.50338557457879    9.06961900240054
C         1.02615969841570    8.46375206061425    5.70598215178087
C         0.70456774916964    8.64758344583240    7.05680853496313
H         1.14397182109449    9.48369426654402    7.58080129648987
C        -0.14819934046961    7.78014066254465    7.70489193613373
H        -0.38666758699780    7.93435077766509    8.74604885996371
C        -0.69499381375349    6.70723949723024    7.01845325425538
H        -1.35777008424882    6.02108851424886    7.52381868557259
C        -0.40282395845250    6.50017733449739    5.67995887237186
H        -0.84088020635629    5.65354087129645    5.17543710277036
C         0.44902266941322    7.37052550411408    5.01458492970998
C         0.21338113012334    6.31232661059555    2.84529662190357
H         0.22156159304267    5.33064140661988    3.34183789363252
C         1.08953323674184    6.25168027787275    1.59974693802300
H         0.73081393313574    5.48098885776966    0.92283038218615
H         2.11917909064371    6.02134510804914    1.87870527455112
H         1.04958928306812    7.21293296271562    1.08244184530298
C        -1.21060852501624    6.74044484931837    2.49525651488622
H        -1.83776372633291    6.79489065087374    3.38222098648748
H        -1.64845395788440    6.03204077526613    1.79720145201022
H        -1.18530402889898    7.72603894252006    2.03315605086090
C         5.24631825106605   11.02728918148781    3.72421074352202
H         4.74487067115192   11.77662148246466    4.35157000876523
C         5.68155024137239    9.87893453877088    4.63683188712162
H         4.80165180040533    9.39561164508694    5.06690761245273
H         6.22127471548953    9.12659471449557    4.06044474712206
C         6.57597042143546   10.40979145587363    5.75301841394039
H         6.00429784939681   11.10739053406465    6.36934396930415
H         6.89640872262515    9.58423948635292    6.39081412664642
C         7.79457322568656   11.12207325174432    5.17378134967585
H         8.40699529547775   11.53194074779671    5.97982858529592
H         8.40624680931063   10.40354429878367    4.62339690785477
C         7.35998392946333   12.23890953391149    4.23012169025067
H         8.23781614509383   12.72885405661460    3.80224818792577
H         6.79547742792735   12.98857599590413    4.79009361849336
C         6.48597482889954   11.67904327152485    3.10804320483168
H         7.06753606957253   10.94347891288891    2.55302966293486
H         6.21957149699472   12.47770807626445    2.41903034836317
C         4.66327959297312    9.88556183741487    0.97861929342974
H         5.09747814853865   10.74166812037617    0.44671405658819
C         5.73760005042780    8.81685164537086    1.18770487018132
H         6.58163761306742    9.21954267415337    1.74621424906393
H         5.31752954561337    7.99202894600913    1.76753456578187
C         6.24127826711358    8.28835863960457   -0.15389029707385
H         6.69570993931743    9.10473109132347   -0.72257621526572
H         7.01071984829984    7.53375005828758    0.02092892257413
C         5.09629656590861    7.68623715338077   -0.95966688082868
H         4.67749820329771    6.83928835064052   -0.41157106628839
H         5.46341647012519    7.31753058973062   -1.91978943606726
C         4.01240365338011    8.73491671798724   -1.17986265400260
H         3.17499661161138    8.30216773963003   -1.73168233421822
H         4.41615849964670    9.55702956042202   -1.77700901044426
C         3.52034453866304    9.28033717499585    0.15552244762342
H         2.73344263079129   10.01858456078463   -0.01978651599795
H         3.08758814795782    8.45131769097463    0.74384520276237
C         3.05019904288498   12.06795800625012    2.03620389890566
H         2.35671812525555   11.73019969889124    1.25443778855558
C         2.19828386087461   12.63494880396499    3.17282135196852
H         2.83973354919311   13.04509849490268    3.95584200042217
H         1.59434639629283   11.83784076497735    3.61303173716527
C         1.28252627127561   13.73254434820437    2.63783968245504
H         0.59847465314647   13.29840287553010    1.90621526610653
H         0.68381497976407   14.14067831395384    3.45439625386020
C         2.09679344108003   14.84386549544140    1.98291605421075
H         2.71872128478509   15.33017142261674    2.73865728276577
H         1.42895062264005   15.59909072425589    1.56365335816310
C         2.99106582990084   14.27470483511674    0.88599263839892
H         3.59480230239446   15.07187772008703    0.44569905959652
H         2.37001240607727   13.84859852274781    0.09512385308768
C         3.90679263882308   13.19050834510067    1.45507308971824
H         4.51618474638565   13.63643828132836    2.24274317129393
H         4.56541830480202   12.82296789152881    0.66577203382513

