41
CSD_code = QOSVEB | q = 1 | S = 0 | Stoichiometry = C16H19CuN5(1+) | MND = 3
Cu       -0.66754279699119    7.41758525661395    4.72919265218047
N        -1.56113132388367    9.11556719502493    5.25821650171005
N        -1.14108068135636    6.80076497483823    6.57011791252520
N         0.02428717539733    6.03474690773518    8.51273147403155
N        -0.10952235264610    4.70988121338599    6.74720709076227
C        -1.73105808483320   10.23037646993633    4.58438556889868
H        -1.21191104771191   10.31094936480679    3.63915802859555
C        -2.53896425011186   11.27745466803923    5.04395660657061
H        -2.63517197593647   12.17311432798258    4.45205297934312
C        -3.20418574319163   11.13316571770530    6.23323487655250
H        -3.85166835006264   11.91129005733167    6.60916515769561
C        -3.04900423628300    9.94677992658619    6.97963834493975
C        -3.70941935090432    9.70240016219934    8.19878237780321
H        -4.36374902747837   10.45897275138991    8.60172778120481
C        -3.52937372060463    8.50680492827052    8.84271740229430
H        -4.05778129215943    8.30498825842739    9.76187186861586
C        -2.66846633535852    7.53013067349055    8.33476525171355
H        -2.56649197380842    6.58946243461219    8.85417680017470
C        -1.96377579892619    7.74189945448363    7.16309081163449
C        -2.18662431367434    8.95375685861202    6.44867227618862
C        -0.46462109339327    5.90583424229839    7.25701186741293
C         0.24001696557495    7.27633821976109    9.20871250113462
H         0.12939328813211    8.11594471229275    8.52466782725322
H         1.25135818701832    7.28900209095216    9.61763486804052
H        -0.47125218113264    7.39747047477502   10.02946556145668
C         0.77542995611691    4.85467242320497    8.90495389600220
H         0.39674484078514    4.46198261107201    9.85246555826934
H         1.83332284102331    5.10747243793427    9.03612059135973
C         0.55850921175362    3.88702569391436    7.73564075703084
H         1.49598761435255    3.49367188057925    7.33318502922872
H        -0.07806910477098    3.04029415080535    8.01626532394060
C        -0.64714825293212    4.12045530336507    5.55432081412172
H        -1.53698976876373    3.52107051338484    5.76780892020301
H         0.11066257598757    3.48168611950070    5.10145503034624
H        -0.91351252390609    4.91758025707002    4.85750557666892
N         0.14181448725153    6.92330995053048    3.20879593095543
C         0.61350140635423    6.81133845790245    2.16448928679954
C         1.20215002784381    6.64153462575687    0.88268720829200
H         1.40108505867844    7.61519981972729    0.43409523650838
H         0.52122145228088    6.08408406982935    0.23886405038998
H         2.13883049227082    6.09104034386744    0.97439240114797

