95
CSD_code = QOSVUQ | q = 0 | S = 0 | Stoichiometry = C36H54BP3Pd | MND = 4
C        13.73701042144642    4.82211707729768   12.45239902114476
C        15.01130290360887    5.30445579743330   12.73033439063687
C        15.42130301657948    5.49450090213859   14.03742795401532
C        14.54964136607419    5.20575490508773   15.07352101985244
C        13.26922083291740    4.76212266784195   14.79660322794071
C        12.82172111159950    4.56636254219343   13.48891019913860
C         9.59590918875388    5.95958036790308   13.95063627441052
C         8.62366727517357    6.46072347553953   14.80936811483046
C         8.29273970419799    5.78309166836421   15.96864614462524
C         8.93427142442835    4.59358700410906   16.26892526153138
C         9.87384823469866    4.07533586829878   15.39624861972728
C        10.22563980677887    4.73026464161723   14.21469560169557
C        10.31774510165512    1.84548355247965   12.16170886512305
C        10.28007157548672    0.46038897925204   12.04388852328187
C        11.04798447385770   -0.33698806018661   12.87287856449100
C        11.86293025289399    0.25436758329396   13.82300165981380
C        11.92980244658908    1.63278351586509   13.91497736543855
C        11.17404904932326    2.46625337508497   13.08860327300574
C        14.17567584340765    3.08272069730001   10.17878881578362
C        13.91904227075835    1.91392206361627   11.12407353060686
C        15.67508578495464    3.31931688709227   10.04255474034745
C        13.80171532291459    5.94120424429872    9.72871895680786
C        13.29413157090270    7.25993319138046   10.29534987461817
C        13.26868072554473    5.74261151954659    8.31126518505843
C        10.96765783575463    8.34331825902022   13.04931684165891
C        12.14683669258754    7.89291242325775   13.90502030853231
C        10.12265621563626    9.35062731470197   13.81995741212705
C         8.52523799053289    7.50938094373909   11.68704648773538
C         8.91438888789242    8.19260922223969   10.37767627635041
C         7.55004885549202    6.37310013577965   11.41178588559268
C         9.33033503650880    2.19825283099494    9.40994881509349
C         8.52450848942272    3.12988648969413    8.50698115765622
C        10.76666467500213    2.10624497836649    8.91351362108895
C         7.56769520707973    2.61841561007130   11.69697774722605
C         7.01641932114331    1.21909177400439   11.45058283915930
C         7.49282437580251    2.95110506838706   13.18331882116890
Pd       10.82855847343435    4.80376694588329   11.33265398542870
P        13.12278583185019    4.53522709284399   10.75792540626914
P         9.32693273196166    2.96569903055812   11.11520890346063
P        10.09688782310921    6.79876690777334   12.40930466903952
B        11.32656524395469    4.04405992416752   13.28327672161778
H        15.68441497818892    5.55446862102289   11.92263877368520
H        16.41325908925942    5.86984885993682   14.24628472630623
H        14.86311658709202    5.34565434172161   16.09858651992925
H        12.58852869467500    4.57380447701961   15.61605135798153
H         8.10382361115087    7.37600882064561   14.56450810516390
H         7.53588789190750    6.17842459743149   16.63149153138261
H         8.68674428277228    4.05981539953798   17.17578746697015
H        10.34104932840403    3.12750405368859   15.62787285346738
H         9.66382110222797   -0.00276351519031   11.28649322244022
H        11.01402044131874   -1.41299782192531   12.77526386820894
H        12.46217162806414   -0.36070428542611   14.47964477801434
H        12.59764568084500    2.08023089626829   14.63891810336684
H        13.77342562305808    2.82221593103623    9.19064940306131
H        12.85144494638734    1.74619737404849   11.24421419735310
H        14.33776529831646    2.12235899517943   12.10734330254641
H        14.37433697953660    1.00115216433491   10.74156644944446
H        15.90484105100563    4.10387591002196    9.32596889434714
H        16.11537639437273    3.57053097635462   11.00393500381201
H        16.14735250109543    2.40222472772042    9.69023970459809
H        14.89554034149684    5.94146342897804    9.72461088295275
H        13.72977464564722    7.45806874967015   11.27256291024007
H        13.54014700835590    8.08726224946309    9.63026658281594
H        12.20572691662110    7.20968272758889   10.40372520529164
H        13.66135373225797    4.83261633477553    7.86096572094316
H        13.53670406199226    6.58399237295828    7.67318831751005
H        12.17793446988316    5.67041208616282    8.34402721322187
H        11.36171816642907    8.83545659975768   12.15010710517721
H        12.74504968770262    7.15592796051948   13.37451945748102
H        12.78308388935922    8.73915107378027   14.16150447951765
H        11.79303939843699    7.43528331190423   14.82750118205316
H         9.30527925749861    9.74561036398154   13.22186797099992
H        10.75285255588104   10.19037981032988   14.11299621242985
H         9.72177001879927    8.90490035752997   14.72651763931954
H         8.06364078011258    8.23122173338174   12.36702233153961
H         9.56701856219847    9.04632627925177   10.55163529405794
H         8.03124735098517    8.53986748180911    9.84253864316812
H         9.44221078597590    7.47701563091240    9.74117240191137
H         7.19965256450948    5.92659846744829   12.34018893478944
H         6.68752977166404    6.73053350294759   10.84996533790392
H         8.05501718102126    5.59995386017982   10.82355604917207
H         8.88180681657153    1.20063478402910    9.41973190166009
H         7.47884092058557    3.17056442664019    8.80682163276395
H         8.94162560056675    4.13889632732224    8.56663453473025
H         8.57080386412539    2.80160476632606    7.46918972616183
H        11.33476606495564    1.38381317122257    9.49610962948543
H        11.24531919282907    3.08609712093923    9.01310291446124
H        10.79610942367013    1.80903174095955    7.86559376393425
H         6.94477997868813    3.33898491922358   11.15035891062631
H         6.99214778815560    0.96629753926033   10.39353973122613
H         7.60053368777693    0.47435389735506   11.98480757422486
H         5.99383607869734    1.17060760401311   11.82499675808980
H         7.89931051966087    3.94125110978774   13.37488676981930
H         8.07221023118173    2.23367438986224   13.76226535996448
H         6.46149918431173    2.92415387796949   13.53314157514220

