75
CSD_code = QOTBOR | q = 0 | S = 0 | Stoichiometry = C36H34N4Zn | MND = 4
C         5.69730732825634   12.88715303133550    4.71784736706801
H         5.11144576928057   11.98447088097227    4.70962246082600
C         6.81297049862952   13.17699878698252    5.51851156010113
H         7.24932646170102   12.52877377987590    6.25361334879916
C         7.21910355432117   14.44109999398618    5.16521506696372
H         8.04199081099603   15.00393358947350    5.56245476024510
C         6.32515888865641   14.89166585595903    4.15670775631281
C         6.35791828246079   16.13988626485608    3.53313011730730
C         5.45590789693117   16.63519800517394    2.59074058035044
C         5.47751118204401   17.93560741208789    2.01752788064249
H         6.20281031395801   18.69706674222607    2.23154656377519
C         4.40235659835669   18.01029977887825    1.16569206583852
H         4.09953515950510   18.84415272156556    0.56237622991558
C         3.76240378396877   16.76267022280192    1.23405002360523
H         2.88271919364493   16.44547391876434    0.70122715675395
C         7.47627367786053   17.04050037854091    3.91157832657564
C         7.33532438712195   17.92903896412433    4.97712270528891
C         8.39654098261794   18.75920392775988    5.30433491354722
H         8.29117174707372   19.44893716138053    6.13006256858981
C         9.58918688611757   18.72339306002270    4.59589258630692
C         9.70808114220533   17.83144663933158    3.53960568744056
H        10.63191510150878   17.79258668895699    2.97955211389046
C         8.66693968134632   16.98722878668782    3.18634063401664
C         6.05187224543235   17.97371553835523    5.74942923313329
H         6.09935405410013   18.72332265175063    6.53529668817965
H         5.84782300207706   17.00341596203594    6.20117627116270
H         5.21928718503434   18.20985069719216    5.08761535684346
C        10.71660126601044   19.64634495155459    4.94795604129236
H        10.62040552235326   20.57986302825811    4.39221711224815
H        11.67603170599218   19.20165048575632    4.69403583987307
H        10.70668091315885   19.88460037724687    6.00902078171479
C         8.80536915040037   16.02452943175652    2.04569402783503
H         8.04077787947697   16.21646759596092    1.29314596013931
H         8.67503529471749   15.00116923738426    2.39741063914522
H         9.78439406391509   16.11310745355171    1.58137560913095
C         1.39803812798875   13.60283611025934    3.47436672000361
H         1.57204629983158   14.26719929334271    4.30282537432432
C         0.21906685014840   12.90697683022875    3.16746310305822
H        -0.69637619802943   12.93587253036589    3.72607717421189
C         0.48226435001638   12.19591085405805    2.02142367005742
H        -0.17942564803478   11.54370905992592    1.48433995955072
C         1.82721961333830   12.47959202074624    1.66216367462708
C         2.50354263134004   11.95584473494213    0.55853608985940
C         3.82886269212477   12.19095424273358    0.19303396633844
C         4.50050789513662   11.63307563837095   -0.92903913706960
H         4.06509480592352   10.95997782195787   -1.64247906191102
C         5.78374454650708   12.12226097047938   -0.90460959852838
H         6.57831787420102   11.91707165398664   -1.59569807381025
C         5.86120003226042   12.96017463361696    0.21958625296981
H         6.71303694106583   13.52139434463840    0.56313474902294
C         1.72543525002922   11.05078348779811   -0.32502846042953
C         0.99019669057386   11.58790465707728   -1.38262498182431
C         0.26966657234274   10.73379865294422   -2.20188769996835
H        -0.30157403688194   11.14530808881666   -3.02225474484489
C         0.26458426023297    9.36135364677161   -1.99162059142791
C         1.00111599023729    8.84895638167194   -0.93424295083538
H         1.00558031040811    7.78250919505648   -0.75730006721673
C         1.73364654037948    9.67566362607541   -0.09516327180346
C         0.98666522519333   13.06854261879483   -1.61510432409730
H         0.38865458282418   13.32149230082386   -2.48700825835426
H         2.00271140630988   13.43139038263057   -1.76743698971336
H         0.57837258092998   13.58618427971718   -0.74741559686576
C        -0.50874877183198    8.45866503480200   -2.90489973978691
H        -1.48416620628673    8.88438708381236   -3.13197032176812
H        -0.64788780309776    7.47772752213455   -2.45740762678346
H         0.02698766596374    8.33164890380192   -3.84606406026361
C         2.52333003406750    9.11227973682664    1.04717661978980
H         3.57914727289770    9.35712946108890    0.93564650729003
H         2.41721533785607    8.03142619324882    1.09481654746327
H         2.18395506376197    9.54082645822558    1.98969582105988
N         5.39934506391857   13.89740302616898    3.91011814230548
N         4.37739397758087   15.94344669198873    2.07729477719030
N         2.35673751656667   13.35520906023264    2.58940320814971
N         4.70911836233249   13.00570435242668    0.87518302273143
Zn        4.16074468857865   14.04548441488875    2.42394414245902

