78
CSD_code = QOTFEM | q = 0 | S = 0 | Stoichiometry = C25H49IrOP2 | MND = 4
Ir       12.61198315108450    2.43689352620105    4.01499712480913
P        14.29055269758248    3.92991277428525    4.48767506839938
O        12.88120277827025    0.68971742373408    6.47042712243854
C        12.56784292031485    3.51963075036228    2.20270311621004
H        13.27125422437322    2.96730279897601    1.54125361235396
P        10.85859718481344    1.33680014864200    3.02211269586815
C        13.09539214203173    4.96637594909094    2.25001194908409
H        12.35901898289504    5.58897076932889    2.76985412178276
C        13.26902876496968    5.55075328927495    0.84248024992591
H        13.64876180705327    6.57585278007496    0.90409635449403
H        14.00411471669271    4.95717650957986    0.29024874066062
C        11.94449192007801    5.53699114145318    0.08773421111931
H        12.08491811616420    5.92545972081679   -0.92466895911148
H        11.22962149670271    6.18835294661215    0.59815517837292
C        11.38623984244069    4.11940258570249    0.03246515718356
H        10.42138954641312    4.12192989823885   -0.48509831979855
H        12.06913224380648    3.48545465927666   -0.54146116008467
C        11.22578959711244    3.54744020074196    1.44655621671301
H        10.53627351150912    4.20673011166442    1.98491596985073
C        14.42699384792341    5.01583434266168    2.99986280713030
H        14.72926115131238    6.03698720158223    3.24529105853223
H        15.19368547366006    4.58517737816390    2.35128252194315
C        10.63441824678062    2.13932439676348    1.37377121480194
H        11.21932542823550    1.56641757567353    0.65009357247513
H         9.59392024852781    2.14091610849620    1.03938005949102
C        12.74995985212256    1.38922885108633    5.54374668885513
C        16.04289443462245    3.20991070079367    4.61353031787116
C        17.18498724932796    4.18455394193595    4.32997709929634
H        17.09347088327567    4.64337911771702    3.34894934956981
H        18.12882951109317    3.63931037492728    4.35303491169144
H        17.23969555257882    4.97261095969050    5.07393126373473
C        16.24832572273107    2.55936137622774    5.98020326698540
H        15.38060872379992    1.96045710179928    6.24941056387973
H        16.42133879268808    3.30441265352351    6.75268265910788
H        17.11853595881745    1.90400916581215    5.95188056796479
C        16.04799918340492    2.10218254699624    3.55444350824200
H        15.88488673552938    2.50392558960435    2.55653872912704
H        15.25480561563633    1.38433123895936    3.76827560136862
H        17.00219305721498    1.57679752113831    3.55520826617682
C        13.96274001362654    5.14290508644440    5.90967740391817
C        12.70736463849890    5.90970009067543    5.48496176721775
H        12.92296025273269    6.62167327227709    4.69231084147864
H        12.29919722477722    6.46211202425695    6.33060396179765
H        11.94879073379367    5.20592448129810    5.13792622122697
C        15.08933990209682    6.12673196978643    6.20802790082258
H        15.44415547630141    6.61696252175977    5.30355599803125
H        15.92687971124251    5.63229369760025    6.69351974216779
H        14.72449311480742    6.89933559843430    6.88510661696232
C        13.61044252043154    4.34943521605496    7.16795054708772
H        12.82664971766696    3.62737311559840    6.94254428416420
H        13.24698859931971    5.02460687681624    7.94200929890182
H        14.46536210671246    3.81295114420376    7.56569984140122
C         9.16381618512169    1.52371261366418    3.85518029502751
C         9.28300445555176    1.10086136536374    5.31942075647448
H        10.12099407983256    1.61720476584592    5.78612623038749
H         9.43854072324157    0.03242261630639    5.42509180738354
H         8.37198144112382    1.36330826400372    5.85634374232322
C         8.88117186919905    3.02832304117618    3.83465293629063
H         9.76026811754170    3.57084353143115    4.18640835907145
H         8.04776095206033    3.26380120871452    4.49563246444465
H         8.62445792453487    3.37320617564210    2.83622668779530
C         8.01542326054677    0.77708603734633    3.18438797751961
H         7.98589041766463    0.96605524681265    2.11307002086573
H         7.06904128309640    1.11294823047584    3.60869608321712
H         8.08957899060264   -0.29432115033310    3.35219299352223
C        11.16942998893721   -0.47375510500210    2.54164797586101
C        11.03069950874911   -1.37551397328079    3.76672812428033
H        11.53919929779025   -0.93449735872446    4.62168380224443
H        11.48290035123098   -2.34641035149715    3.56565786543942
H         9.98705428801266   -1.54375714895594    4.02017649754660
C        10.30973842156472   -1.01758648742708    1.40149745454855
H         9.26055830217515   -1.06893767875844    1.67362657507550
H        10.64043010670009   -2.02812416555132    1.16038989058242
H        10.40252292741741   -0.41675343159535    0.50056474445787
C        12.64070198529715   -0.47892450064917    2.11246775981310
H        13.26483105099643   -0.11942491849115    2.93189512386102
H        12.80666119329123    0.16303392724608    1.24983777634197
H        12.95873755213644   -1.48698197655674    1.84944915193831

