101
CSD_code = QOTKOZ | q = 0 | S = 0 | Stoichiometry = C50H38N2O8P2Ru | MND = 6
Ru        4.92109960284539    7.88612952592699    6.10997102872508
P         6.56520019300983    9.42210499325464    6.73664363643192
O         0.03744562051603   12.09068510623948    7.24011250104562
O         1.33291096491292   12.42728594051908    5.49950213578887
H         2.11631264657593   12.01508018943891    4.98972889412700
O         3.20393805860486   11.17812693768779    4.39849444359581
O         4.39532415888624    9.37006391100141    4.71893122443422
N         3.58374516342320    8.96908717892611    7.11368396034482
C         7.90184442819733    9.43951427177835    5.50414503778012
C         9.16709207274696    8.94082175228867    5.80364861010031
H         9.39774572686561    8.62044962532355    6.81016917301614
C        10.13032667591841    8.85087862047363    4.81481710714683
H        11.10784096497161    8.46079891529615    5.05555926672197
C         9.84262759663218    9.25474762493217    3.52162099600346
H        10.60040515467111    9.19079818404034    2.75532313128079
C         8.57689359721076    9.72377094153558    3.21012880996281
H         8.34373553343127   10.02146472462432    2.19822648664914
C         7.60270206203748    9.79649732735093    4.18915282032236
H         6.59928320771937   10.11132659813484    3.93657527298025
C         7.46546879312109    9.36233747840870    8.31841839414281
C         7.24375878435744    8.35083612893017    9.24322430185581
H         6.53713065092768    7.56448166654995    9.02082074708133
C         7.93273886546401    8.34907067352537   10.44517317472857
H         7.76170114517475    7.55706143447880   11.15879126181545
C         8.83831251041914    9.35656514054930   10.72749413479494
H         9.37591796665508    9.35355637589559   11.66394930024383
C         9.05638416259853   10.37330253612912    9.80882120691534
H         9.76109876763440   11.16111485068931   10.03064966945098
C         8.37263576707241   10.38040296990603    8.60940347261420
H         8.53627350893451   11.17067075037444    7.88858735630426
C         5.92594837447123   11.13146895237080    6.85569078012857
C         6.04219615492986   12.10955426838493    5.87623353464560
H         6.64402398243222   11.93874658262128    4.99777269299008
C         5.38898833155635   13.32153393568597    6.02529995002749
H         5.47438597417490   14.06867279825974    5.25106514946694
C         4.61940668720678   13.57254615753398    7.14751403503924
H         4.09321452191336   14.50940340319800    7.24628154416926
C         4.53140956600892   12.61769290049171    8.14815861960660
H         3.94812413594682   12.81210783631590    9.03628607261617
C         5.18096971951220   11.40771107709573    8.00385687057438
H         5.11746575405496   10.66196870768446    8.78772354099679
C         3.31425338790175    8.68377374768501    8.38255930316368
H         3.92577805851779    7.91055027271036    8.83033126307874
C         2.32705087035399    9.33988673669667    9.08938594203630
H         2.12673288760139    9.08444007925341   10.11720408522470
C         1.60550587785153   10.31974267781128    8.43710474174001
H         0.79851678567386   10.84681105021885    8.92347706370207
C         1.90990104172754   10.67573222599974    7.12029033616322
C         2.93997351488107    9.97254150946980    6.47963409817509
C         1.01575190976433   11.79787856774551    6.59472370894204
C         3.53195373316388   10.20800993068781    5.09439570678652
P         3.27697487876122    6.35000569687439    5.48362209864342
C         1.94039195860564    6.33250662483885    6.71619800460258
C         0.67509493715539    6.83113716003882    6.41678994177795
H         0.44434941843649    7.15150789679505    5.41029133185697
C        -0.28806614597557    6.92102356766486    7.40569951418291
H        -1.26562391078164    7.31104274446281    7.16503465293938
C        -0.00024170387910    6.51715752964404    8.69886927258701
H        -0.75796515393934    6.58105223805556    9.46522513537471
C         1.26554253991507    6.04820674577454    9.01026233938398
H         1.49880033396351    5.75051584683156   10.02214124032873
C         2.23966124525510    5.97553868227936    8.03116335251571
H         3.24312204706054    5.66077769524266    8.28365305033195
C         2.37661051012789    6.40975037163833    3.90190954290670
C         2.59820687849067    7.42127045860010    2.97709333580730
H         3.30481114820030    8.20766263925825    3.19945367733498
C         1.90912791451788    7.42302673201885    1.77519870375828
H         2.08008600396948    8.21504126519464    1.06156423868532
C         1.00356273973616    6.41550666746639    1.49293757175157
H         0.46589781352958    6.41849331478975    0.55651499480730
C         0.78560124410212    5.39875307256313    2.41161975199316
H         0.08090536608241    4.61091106366825    2.18983151727361
C         1.46945196173671    5.39166326791480    3.61097897259451
H         1.30588704646313    4.60138481506398    4.33180348152396
C         3.91622142252553    4.64064247515762    5.36448952253740
C         3.80000007236705    3.66252910599447    6.34391996421161
H         3.19819930356601    3.83331634227970    7.22240281579965
C         4.45324126673113    2.45057219012708    6.19481965505251
H         4.36786298551687    1.70341350004823    6.96903674323817
C         5.22281585465865    2.19960613130153    5.07259107804660
H         5.74900218483158    1.26275036771413    4.97378028197061
C         5.31078017015258    3.15448554095422    4.07196725374872
H         5.89404039929989    2.96009484160806    3.18381723438971
C         4.66119245524719    4.36444877479997    4.21630631281798
H         4.72467113672575    5.11021298564832    3.43245825534421
O         5.44676036894299    6.40210763551441    7.50099174549675
C         6.31018678305384    5.56415143865808    7.12565174538866
O         6.63823690010547    4.59410181492568    7.82161752096757
C         6.90221159042475    5.79959702479262    5.74045279565913
N         6.25838684242891    6.80302807757609    5.10638973623706
C         6.52785827308423    7.08835510987571    3.83754108250380
H         5.91631405096305    7.86159293806766    3.38982095533649
C         7.51505824804841    6.43228159456312    3.13069882256702
H         7.71535537742549    6.68777255060951    2.10289211662965
C         8.23664510573722    5.45243885714675    3.78296111633348
H         9.04364493404700    4.92541574507299    3.29656183793071
C         7.93232197344533    5.09646772849111    5.09979658827984
C         8.82652292839609    3.97438691460215    5.62539583793467
O         9.80475182059249    3.68149946676926    4.97993058528735
O         8.50932245417465    3.34493376920457    6.72058997789660
H         7.72596040465915    3.75715518977997    7.23040609974447

