22
CSD_code = QOTNES | q = 1 | S = 0 | Stoichiometry = C9H5MnNO5S(1+) | MND = 6
Mn        4.60090516951292    6.24413913579090    3.23367476509335
S         4.68508827242290    6.02796836884680    6.67093496748253
O         7.37962912319008    6.31170440277074    2.25180312241575
O         1.84609030827180    6.21293865204167    4.29025135379560
O         4.94046387901154    8.97677114242460    4.29337748385024
O         4.25480194114872    3.44325557530839    2.37855504890941
O         3.62982385568821    7.26105763205052    0.63887536272479
C         6.31364956994171    6.27851358043837    2.63304197337167
C         5.77296310394237    4.99095895704870    7.50504438744971
H         5.77527336629112    4.94861169472219    8.57487574844981
C         5.27741478702661    5.53891372964040    5.12761164471489
C         2.90176919307160    6.22118673196329    3.88984685219492
C         6.55089470461703    4.30476556386598    6.63512662969245
C         4.39442435364749    4.51892773337757    2.70240607838844
C         4.81107684905517    7.93362656023306    3.88062239962708
C         7.61297406270290    3.31429769310189    6.93886977278276
H         8.05670844105917    2.92259670634523    6.02757600997901
H         7.20461253465775    2.48443601339448    7.51288185118795
H         8.39704101864480    3.77213306348373    7.53956492273179
C         4.00245229659274    6.86925037749472    1.63075528033785
N         6.24436087922972    4.63679169252540    5.33728932599019
H         6.75168229027353    4.19425499313140    4.57731501882979

