56
CSD_code = QOTTAW | q = 1 | S = 0 | Stoichiometry = C30H19N3O3Re(1+) | MND = 6
Re        2.48939286084634    5.51117592946271    2.70694439496461
O        -0.59786621033200    5.43640976240969    2.51869364698478
O         2.76773986235740    7.43942993656444    0.30292019496227
O         2.23966385758000    7.73314608893519    4.85131631494470
N         2.80685144702368    3.79254094945507    1.47749383825299
N         4.65837739991201    5.14549517093203    2.80360737574241
N         2.47731422050113    4.02169598264947    4.36959700104405
C         0.53901531532676    5.49950986730655    2.59474882550889
C         2.64057710268487    6.74451394818485    1.19706317717350
C         2.33597578888027    6.94802042806180    4.02794361489934
C         1.89084103784063    3.23505621149815    0.68833222971566
H         0.95435772832283    3.76842037099078    0.58617134981721
C         2.09607127502035    2.04482478617715    0.01482143425137
H         1.32186973369641    1.64044257661952   -0.61574847949148
C         3.31179177450950    1.39643252627392    0.17300556578616
H         3.51132610869943    0.46270922573916   -0.32846121016078
C         4.27384943128782    1.97694178864941    0.97838713130034
H         5.22996629444211    1.49613205207457    1.09691179695319
C         4.00100890862394    3.18630352150859    1.61708385171489
C         4.99415072766833    3.91031717128373    2.42363938134311
C         6.26304871283584    3.38366377931338    2.70471625966109
H         6.55472365877642    2.42002754016055    2.32431141241549
C         7.14041791645547    4.10174738804166    3.47712936802659
H         8.12492266438766    3.70747630622880    3.66870693108131
C         6.79607173421160    5.38553822792198    3.92997699368157
C         7.66245616043585    6.20521913869708    4.72230112407430
C         8.73060635153510    5.68442437329036    5.52587161577522
C         8.79759265521989    4.34652412960583    5.95960311491551
H         7.97306011168912    3.67757183547866    5.76321900356562
C         9.86093850746810    3.89179010923269    6.69776729181224
H         9.88694804989387    2.86356919543286    7.02573700660781
C        10.90486864160305    4.75370071810418    7.04621390681380
H        11.74679209883224    4.37704679619876    7.60572948095684
C        10.82286928470682    6.08208785968230    6.72146725426200
H        11.58701281932015    6.77350341734091    7.04322626159175
C         9.72762746531006    6.58086116301319    5.99435483214930
C         9.57672738920850    7.97512586510421    5.77936728833988
H        10.35464645375966    8.63605154673652    6.13040002040530
C         8.44928711214720    8.47070897853926    5.20872625467431
H         8.29178138193710    9.53471552715003    5.12124520212493
C         7.46667734189525    7.59886629505997    4.67662516473585
C         6.29607620870173    8.12406306468051    4.07246847165331
H         6.16338324326462    9.19515299489534    4.06214672829191
C         5.34161679096475    7.31670970226497    3.54262151950351
H         4.44098755554478    7.73227050457499    3.11275984545375
C         5.56827593851120    5.92100915498996    3.43774646006050
C         1.70929374249391    2.93263014317847    4.31293919689406
H         1.05457834727252    2.83836460589687    3.45541380358922
C         1.71223011405222    1.95403666662321    5.29046285230635
H         1.06604684110487    1.09686702876191    5.19217533150516
C         2.54615457713940    2.10362861351552    6.38719247210964
H         2.57099247457408    1.36171584645888    7.16971983414882
C         3.33885258569042    3.23852820418775    6.45569460284394
H         3.99699889682887    3.41137649241713    7.29186936741787
C         3.26994010667068    4.16718259974929    5.43310641987707
H         3.87122140068664    5.06722589260435    5.47801587097240

