61
CSD_code = QOTWAY | q = 0 | S = 0 | Stoichiometry = C26H26CdN4O4 | MND = 6
Cd        5.10816802716362    5.41165234805541    4.64570223906067
C         1.09019894072879    3.47422136599643    0.21532659710392
C         0.30681196641798    2.31904846729383    0.27984587089889
H         0.35777056287831    1.69747853507345    1.16268858563639
C        -0.52687066868538    1.96453042487880   -0.76302209451308
H        -1.12470445998500    1.06695316577041   -0.69433658312561
C        -0.59616186188635    2.75692137539871   -1.89701797113355
H        -1.24573246909357    2.48065706546662   -2.71460187277785
C         0.17541496642528    3.90543874681717   -1.97755290814206
H         0.12605643095092    4.52540592439014   -2.86134243971218
C         1.00890411108875    4.26155397563807   -0.93566068570661
H         1.60568176264361    5.15683929764462   -1.01419787984333
C         1.95166044539468    3.80340866392885    1.33780600962101
H         1.94812022751940    3.09634836520703    2.15914816200724
C         2.74075743817163    4.87243766821604    1.46702981594600
H         2.82869704982175    5.64325161787548    0.71594376023861
C         3.58509337320058    5.08034753382083    2.67380474600394
C        11.18673610948788    5.15440424298501    3.05845027670594
C        11.74621077390462    4.22593942599335    2.17677607583761
H        11.11040415086289    3.47303819229886    1.73273128571756
C        13.09141396531165    4.26077309842001    1.86478855391476
H        13.50469446219786    3.53512696542858    1.17895826754710
C        13.91036002496311    5.22463077771792    2.42955037463695
H        14.96254335206068    5.25403703114176    2.18714301846114
C        13.37134584072545    6.15222707982627    3.30703596922524
H        14.00681013536234    6.90606499388551    3.74949160114851
C        12.02642191305872    6.11972200822677    3.61892660906325
H        11.62143408837246    6.84762434013098    4.30462720813249
C         9.76662126040855    5.07496775300321    3.35356309904999
H         9.23252316634351    4.25747692391071    2.88308273246748
C         9.05014056204343    5.89551724374649    4.12546504417269
H         9.46593257983647    6.75305911972919    4.63306621933012
C         7.59055481610786    5.69238435370665    4.32945424103787
C         5.84579373910818    2.80146630731677    6.16133092325990
C         6.54247720826673    3.34577759330187    8.17654029193301
H         7.02446410833218    3.23122354323898    9.12512139659303
C         5.85695608733738    4.38161545922260    7.62205990207500
H         5.64255644737511    5.35192706022758    8.02521764160204
C         5.63525011219733    2.02024985476803    4.92276674805968
H         5.67309627016697    0.95074082084386    5.11993604315337
H         6.40669338978736    2.28715002204386    4.19848576824193
H         4.67706579998590    2.29575811333375    4.48517825349438
C         3.61144696331923    8.06828092453030    5.26474038202789
C         2.57841849995781    6.53246724103796    6.36300307506360
H         2.42650961343000    5.56251281820957    6.79443859827585
C         1.76656842541935    7.62410161319977    6.37971474350214
H         0.80356404305783    7.79455516357582    6.81411609409524
C         4.60910993321899    8.80030646447706    4.45432941651445
H         4.46003430272546    9.87582637821618    4.52312416835764
H         4.52558770177537    8.48241902795245    3.41358797105875
H         5.60990346399585    8.53118739016743    4.78918940649620
N         5.42694069233664    4.02757205434038    6.37695246746644
N         6.52556629477732    2.34604362127117    7.23924737449077
H         6.96468868073088    1.44412112506914    7.32847418507258
N         3.71810600336265    6.82482072668979    5.67416153829751
N         2.43577777427146    8.59417092645493    5.67997202847146
H         2.10083639728196    9.52491874763294    5.49104808378736
O         3.55534138892866    4.23985176681645    3.60560209938749
O         4.29691991213973    6.11316755812795    2.71794907736029
O         6.96651756804638    6.54609243348050    5.00696379445783
O         7.03479613173720    4.68018714781460    3.84007460035737

