43
CSD_code = QOVGEN | q = 0 | S = 0 | Stoichiometry = C14H18N8PdS2 | MND = 4
Pd       -0.90937700362069   -0.00004710846436    4.71266366683233
S         0.26415610879929   -0.04100149656945    6.73479087323142
N         2.57769556042336   -3.24131110674210    3.18578529329712
N         0.49998225633739   -1.32756583705997    4.14168856893079
N         1.44400663053971   -1.74150021420266    5.02827897887140
N         2.38540429688390   -1.59262302130684    7.08948246945896
C         3.31463250170076   -4.07617931357085    2.43007345203852
C         2.76130242341112   -4.12800934988546    1.16743514685974
C         1.64706664890423   -3.28766795047285    1.16871933565222
C         1.54520955091115   -2.73778893683635    2.44513857392113
C         0.57451847178450   -1.82154663178327    2.93528313621374
C         1.41833609017011   -1.21564869803680    6.22262055387629
C         2.39267568144356   -1.23250769901924    8.48248746072537
H         4.17700568530233   -4.58013685770862    2.82132498395733
H         3.12460047248790   -4.70822080181048    0.34247897458875
H         0.98559770566191   -3.09317099476708    0.34826905107166
H        -0.17814030995195   -1.50880969121496    2.22176531242007
H         2.68796085563923   -2.96193190608365    4.15385090331160
H         2.94078713402212   -2.38790184420227    6.81389868619537
H         2.06132865198898   -0.19965378074335    8.58055433720143
H         1.72408770383623   -1.86740616825782    9.07356786747340
H         3.40670574718306   -1.32370026843688    8.86714182309820
S        -2.08418832691802    0.03915589502489    2.69115414506984
C        -3.23903114963873    1.21290563878757    3.20358291425984
N        -3.26390661908564    1.73997909090103    4.39743766338479
N        -2.31863361884286    1.32767932733900    5.28346717104543
C        -2.39156026918061    1.82381237908409    6.48908903950752
C        -3.36164289062895    2.74086771045791    6.97891788662061
N        -4.39515412236226    3.24308356227319    6.23881654804188
C        -5.13109391169937    4.07921868658327    6.99410579131710
C        -4.57604144395618    4.13323254834672    8.25589773687287
C        -3.46172798722300    3.29299858836236    8.25450250675937
H        -2.79910893680685    3.09994632942433    9.07436521983974
H        -4.93823494389620    4.71483769513358    9.08035766658756
H        -5.99401989367140    4.58247784770963    6.60317276922270
H        -4.50689916813696    2.96187725192752    5.27145446865628
H        -1.63793201096938    1.51239454514001    7.20215586955389
N        -4.20769798154423    1.58790713317716    2.33757360065678
C        -4.21597537810422    1.22658134513213    0.94488073464073
H        -3.88343282811824    0.19404582773956    0.84743353829158
H        -3.54878673804051    1.86178271655388    0.35252309613056
H        -5.23054295059595    1.31614358625759    0.56122302839157
H        -4.76303169443896    2.38340197181998    2.61278915592276

