52
CSD_code = QOVHEP | q = 0 | S = 0 | Stoichiometry = C27H18CoN3O3 | MND = 6
Co        4.60479334699139    0.23817668652328   12.53266611324297
O         6.48789530169805    0.12193142684387   12.36262468517704
O         4.78498718215195    2.03746410084689   13.03014168735537
O         2.70963164866952    0.30820807839045   12.72242793543391
N         4.60017947430051    0.80507928711280   10.73239294056874
N         4.71727561661815   -0.16354978439980   14.38783036692020
N         4.33369971604307   -1.56452478657428   11.97952480626923
C         6.87829485174523    0.54468895037580   11.20257037319071
C         8.20384826828243    0.63508037970269   10.78195176644627
H         8.99290494168453    0.35604148978715   11.46238702643928
C         8.50147000547089    1.09202974832530    9.50068060542101
H         9.53969572985309    1.15319836858009    9.20641133404889
C         7.52771433964853    1.46987497972747    8.60374787414619
H         7.78883583518087    1.82670254766131    7.61953073134446
C         6.17517197216001    1.39927688031031    8.97391471880114
C         5.08148120893819    1.76741039829911    8.16241801981249
H         5.26081890125692    2.14077785839925    7.16446366709213
C         3.80935315388488    1.65353355886789    8.65819416888173
H         2.95302715343955    1.93580700680167    8.06555454608623
C         3.60194355122364    1.16525645647809    9.95580734466892
H         2.60402488595452    1.07631343544539   10.35957703863712
C         5.86493680801769    0.92637016941297   10.27243732326906
C         4.86505700507794    2.17135517379410   14.31085243577143
C         4.98469911741990    3.38614057140881   14.98645435243322
H         5.01123229218582    4.30207060315020   14.41799513414493
C         5.06688265254170    3.40971190681425   16.37492491815584
H         5.15730158038422    4.36729129702272   16.86816157743255
C         5.03752740425173    2.26353037802274   17.13876300185078
H         5.10320583392596    2.31197583085836   18.21471137836260
C         4.92051620054605    1.01350159593446   16.51284682528164
C         4.87945020910703   -0.23082937946875   17.17480621858164
H         4.93988818014049   -0.26444604479377   18.25304662746186
C         4.76389318917958   -1.37826540817507   16.43575487207519
H         4.73054635673288   -2.34701067253062   16.91009924867042
C         4.68522935617788   -1.30803096378339   15.03830101020271
H         4.59357122859907   -2.21685148820730   14.46026735784433
C         4.83442346000049    0.97991576351982   15.09730270330588
C         2.15841141307090   -0.82177898684530   12.42523117836432
C         0.78987088753380   -1.08986571243609   12.47637601664100
H         0.11486012714826   -0.31102758473584   12.79381922961950
C         0.30871444401508   -2.34673807530503   12.12428170035612
H        -0.75658267514760   -2.52141297379022   12.17569026918405
C         1.13546832110203   -3.37001167559084   11.71467053534866
H         0.73332085915160   -4.33476189457832   11.44726819955950
C         2.52061741756692   -3.15868819853057   11.64423699623238
C         3.47783422564920   -4.11667640420718   11.24642616163796
H         3.15307207851185   -5.10692040180817   10.96171708757570
C         4.80460089964669   -3.77421971250495   11.23100682846636
H         5.56025097389472   -4.48466126799020   10.93376709523635
C         5.20128880781761   -2.48354617634491   11.60625681784713
H         6.24476039405636   -2.20417138811290   11.61071945000047
C         3.01870386649715   -1.88112594770503   12.00188969910144

