83
CSD_code = QOVJIU | q = 0 | S = 0 | Stoichiometry = C26H53P3Ru | MND = 7
Ru        3.72024190569105    1.13793698741525    5.53608055007430
P         1.98825659909258   -0.03491713344060    6.62033270864550
P         5.52454790882314    0.43677117980620    6.83940950985184
P         4.00643315896059   -0.29921539435584    3.68167172866725
C         4.62483521537155    2.64462633863104    4.08347930385574
C         3.19265695248596    2.81046843641747    4.20945841823568
C         2.53475188637144    2.99651169207238    5.41858946727281
C         3.19004872543584    3.03606697806314    6.70236192748300
C         4.14281110185216    4.01363637387812    7.17500753042842
C         5.17291179500543    4.68705328135722    6.60843075463131
C         5.85142642675294    4.50070014678750    5.37643417399138
C         5.66563309626576    3.59515292565140    4.38617223360659
C         1.00469349321146    0.63805719746382    8.05399393086495
C         1.76405667407481    0.76863117869726    9.36528780871128
C         0.50264069200028   -0.50455973001071    5.59229394770039
C        -0.38564680161209    0.66195301141331    5.18202362879684
C         2.41180792704589   -1.73149909214852    7.27300161262909
C         1.34199978564756   -2.59409477897604    7.93440217720107
C         5.36369465487857    0.34761480629078    8.69646420335893
C         5.39046750075227    1.69024766702833    9.41189480490933
C         7.09714746944800    1.42286580143146    6.82198016043457
C         7.92381796513020    1.35757635005141    5.54796473957434
C         6.16531223396449   -1.29567091821934    6.55811303842445
C         7.41864017433082   -1.77622262110179    7.28269500753860
C         3.13496197527289    0.10486632946575    2.08482153442306
C         1.61882757248131    0.04683514173830    2.17346495834501
C         3.60814963116435   -2.11936342846717    3.78439938882270
C         3.77647210394698   -2.96941897133534    2.53067170787903
C         5.77035635925321   -0.42839978025643    3.04830902357438
C         6.08820036440927   -0.15472178123325    1.58187558977682
H         4.85255960340823    2.20321057998115    3.10283592270892
H         2.58812148285746    2.77133786596925    3.29935372631558
H         1.44495753697847    3.08578353077290    5.40531277393745
H         2.45238610448534    2.87429377399113    7.49489181780356
H         3.96578789778686    4.28128944342486    8.21630375519134
H         5.63407702222545    5.43583814607648    7.24562130154382
H         6.72897163005556    5.13019276339991    5.26532922896589
H         6.46692439161114    3.57351805177036    3.64825516816291
H         0.64694912158644    1.62396861370842    7.74356687093977
H         0.12733978747396   -0.00266154431571    8.18591068573466
H         2.06922533682883   -0.20498591970989    9.74249240985365
H         2.65088515397417    1.38078693356539    9.23103368175465
H         1.13140011035218    1.23911122351137   10.11782315914348
H         0.88946109886159   -0.99959718383773    4.69968234597349
H        -0.09427452378255   -1.22774565394407    6.15244526736706
H        -0.91398813659477    1.07468055766400    6.03835604772423
H         0.20397081563176    1.45651192465305    4.73001569572350
H        -1.12672345589656    0.33188607081883    4.45461237834630
H         2.84169711045268   -2.26940715147916    6.42451739924700
H         3.22799341376309   -1.56440335614705    7.98111177222380
H         0.85171747508886   -2.07370920764407    8.75243930911813
H         0.58563396113670   -2.91602573207471    7.22333483139675
H         1.81040971848179   -3.48948725425393    8.34196865309086
H         4.41466497690952   -0.15211707872194    8.89989864794258
H         6.16772342363048   -0.28314208253433    9.08160478142548
H         6.39139001511157    2.11380797207619    9.42127602533772
H         4.73286848285644    2.39514794622946    8.91296890700238
H         5.06371012207831    1.57193855902731   10.44471710922039
H         6.78803412688146    2.45808106416077    6.99265934223320
H         7.69744470328037    1.09587149852763    7.67643796117142
H         8.20906292256831    0.33664617979820    5.30259478742837
H         7.36084190551133    1.77810823299037    4.72007510648317
H         8.83219165071425    1.94708120380620    5.66840142949441
H         5.32618029183852   -1.95638652238380    6.79869527570644
H         6.32478129262537   -1.36352419049720    5.47986855664176
H         7.69357120179872   -2.76080833560311    6.90529323731971
H         8.25853186139738   -1.10788070136175    7.11746695547350
H         7.25839417968284   -1.87088556415464    8.35351056249503
H         3.43964074709563    1.11416645541621    1.79892492424579
H         3.49102594880775   -0.58126301096095    1.31497287149901
H         1.26525185506627    0.68609666771557    2.97802391873310
H         1.17318163271065    0.39023697703368    1.24008278396643
H         1.27267939460510   -0.96802157425631    2.35865368232375
H         4.25707089431873   -2.50524482090848    4.57749497405797
H         2.57968383102333   -2.20110630797738    4.14421604152888
H         3.65003205342834   -4.02080362641384    2.78742979881931
H         3.03368079973653   -2.72151404633898    1.77704297333531
H         4.76588088948049   -2.84875023132468    2.09673018324707
H         6.33226130462463    0.27950052427025    3.66033322215331
H         6.12072883738974   -1.43283706926047    3.30523515548743
H         5.63662295960956   -0.88694874186281    0.91688774045396
H         5.75984777569104    0.83645129523813    1.27979651732216
H         7.16818271524645   -0.20287534174977    1.44340675547176

