75
CSD_code = QOVKIX | q = 0 | S = 0 | Stoichiometry = C36H28N10Ni | MND = 6
Ni        5.64239688259496   11.98256736766207    4.83639681767472
N         3.97372755584843   11.99806767767540    5.77571664012911
N         7.27786053662096   11.96256677819825    3.91414951805818
N         5.34928847467504   14.24238513927533    4.50097707087113
N         4.42953137882849   14.85899040186547    5.23929548363610
N         5.74413895634699    9.72660179289290    5.28743529101545
N         4.62464109499151    9.12598986440597    5.68369910243449
N         6.63931612891801   12.35820814317372    6.46155977507776
N         7.72856700840964   13.12230156137539    6.47178205100185
N         4.76159514269811   11.61039725928837    3.14550069309770
N         5.29993110943375   10.82364792763468    2.21738554805683
C         3.66283000344385   12.99409555624034    6.66419929287139
C         3.95241172299120   14.36449500031075    6.46832390191718
C         3.71080064021702   15.29168719015988    7.47568368367419
H         3.98264750980350   16.32412056789983    7.30782830951519
C         3.13163118508422   14.91989383701840    8.67160637153055
H         2.95291563467436   15.65377916982689    9.44178479213296
C         2.78011848051652   13.59035347308944    8.86199490388229
H         2.31337155176823   13.28104748361817    9.78580411989757
C         3.04441477349535   12.65865027557397    7.88759920407124
H         2.78502796798618   11.62165309838646    8.05117488569779
C         5.55177902506886   15.00328901156912    3.43731646371258
H         6.26589324002338   14.72097088948306    2.68849913021758
C         4.73973625661065   16.13868128394857    3.48443376854690
H         4.67739010931199   16.93116410189332    2.76741089255048
C         4.03249786061734   16.01119162841983    4.65772758157759
H         3.27442383038711   16.63445408640759    5.08676669764611
C         6.74529094427795    8.95201970327168    5.67332165171946
H         7.76122825271495    9.22014056827396    5.45804253945426
C         6.26347185922356    7.82363247981252    6.34060559725439
H         6.83017075001596    7.02333039430539    6.77001786116932
C         4.89547706361365    7.97024831397625    6.32743616013188
H         4.12419245129814    7.35785022848412    6.74844937835822
C         3.03841569797142   11.01538641228535    5.58193715120794
C         3.33546217684876    9.63931006496034    5.44496320532898
C         2.33641036859458    8.72609994148104    5.12747216105025
H         2.60561083295684    7.68871063242492    4.98846307648146
C         1.02028171742882    9.11776942447443    4.99237610400915
H         0.25935203870222    8.39450726352903    4.74423927089063
C         0.69471649040073   10.45345609268529    5.18586348230554
H        -0.33171744457942   10.77844468149113    5.09778899384521
C         1.67758100094027   11.37127940007171    5.46669254452720
H         1.41846198463646   12.41309029895456    5.59660741449010
C         6.43454098077775   11.94997585606107    7.70549365047738
H         5.61024837884689   11.31370289114775    7.96005208155973
C         7.41942237544725   12.46516108148282    8.54531777732667
H         7.52315459404804   12.31539322644886    9.59987593503865
C         8.23095265929242   13.21002847640991    7.71994921894545
H         9.12748385459095   13.75192522370163    7.94008659793985
C         8.15310224853782   12.99070769308632    4.07606132437468
C         8.30902129917712   13.66033478173038    5.31228490664602
C         9.08188008565297   14.81000669775765    5.40665223302457
H         9.14051583886484   15.33454049260931    6.34876064857790
C         9.77112194789832   15.28997041357536    4.31115244149712
H        10.36664634544698   16.18539485460900    4.39473532033404
C         9.69117061875943   14.60536295633813    3.10469233731550
H        10.23787811877595   14.96427494746844    2.24492525273098
C         8.89837215203864   13.48879972487189    2.98843846768081
H         8.81372637103931   12.97871959474383    2.03901425523360
C         3.60046476753329   12.03862402106092    2.67178805452504
H         2.96996917038013   12.69548920484662    3.23758242618369
C         3.38060026045579   11.51323296073981    1.40046822928511
H         2.53544079736870   11.67404019348244    0.76397859261737
C         4.49039025343647   10.74094240667374    1.14233205007568
H         4.75427997092201   10.18284547560277    0.26782380176427
C         7.57124379727444   10.91823738609668    3.09389928333624
C         6.58080786945431   10.25984201337761    2.32799545835160
C         6.87596992587622    9.09510442131701    1.63220534218685
H         6.08947902508777    8.58066219937601    1.10027769838332
C         8.15960167645084    8.58761313747459    1.61652215173131
H         8.37761788699030    7.68056723897973    1.07508657829720
C         9.16433685173428    9.25968411546689    2.30170163547975
H        10.17510743290740    8.87896846644547    2.28427092743795
C         8.87682432129628   10.39166361458216    3.02608457273894
H         9.65573787720835   10.89225776467581    3.58416216619729

