79
CSD_code = QOVLIY | q = 0 | S = 0 | Stoichiometry = C40H24N14Ni | MND = 6
Ni        6.89646914063283    5.35485189956052    5.13135577168481
N         5.68463819925292    4.48834508986623    6.27119019696566
N         8.14048962208428    6.24388989337668    3.96162393193010
N        -0.73227965206044    6.41989668166824    5.75011216311918
N         6.31943992609214    7.02456479884122    5.92288127786963
N         5.04084097121370    7.25467219112199    6.21909811167079
N         7.36665871789242    3.60894840736209    4.43989310617322
N         7.48275488088875    2.54757309160960    5.23708494199573
N         8.30803689158866   -0.15595284649883   10.36112756619439
N         5.36129698705773    5.65603137390197    3.43879124143032
N         5.56949925685830    6.63529806394875    2.55888270921406
N         6.52303110316712   12.25015369597332    1.35822186170721
N         8.65826140756395    5.21629439878007    6.61093049184571
N         9.89935243665408    5.27277491477989    6.12817094250947
N        14.03478998786716    3.29214427043360    2.54314297071306
C         4.39422728586125    4.90441965365988    6.30207925258655
C         4.04231204147797    6.26974953956191    6.14550150290115
C         2.72247803386353    6.64939711754922    5.98882787651969
H         2.46879853119178    7.68504723307696    5.81901499309798
C         1.70296931331326    5.70154712640418    6.04875906314802
C         2.02413717175605    4.35896620224698    6.28591767479656
H         1.23318423864894    3.62695297795307    6.35093620486020
C         3.33483564677890    3.97757203732635    6.40569004858134
H         3.58254799319600    2.93619749631976    6.55397420595009
C         0.36086065189448    6.09716316493214    5.88273048540283
C         6.99330228175331    8.12766560497270    6.21240771651052
H         8.05363548909046    8.19299698421204    6.06799323830026
C         6.12671058872458    9.10066834357675    6.70771278733014
H         6.37170057690357   10.09240501198169    7.02531611388445
C         4.88620247895978    8.50638594311890    6.69847160113774
H         3.93987832308094    8.88366514708686    7.02683344353519
C         7.68607183210931    3.21626036089741    3.21575385496417
H         7.66315880746058    3.89277847060690    2.38435104482784
C         8.02093354019570    1.86315673216293    3.22028933765897
H         8.32273459479281    1.26255368776153    2.38805075076715
C         7.87872248194131    1.46859293066485    4.53033374200342
H         8.00243684300424    0.50313913539240    4.97562625619622
C         6.12210602885172    3.46237234744274    7.04270498953300
C         7.11800732345086    2.55754607620309    6.59332895729326
C         7.68590744307503    1.64016766620668    7.45735879024017
H         8.47922529383497    0.99040408570245    7.11940318640332
C         7.24189881241266    1.54146706450459    8.77437097816401
C         6.20136779531394    2.36965164193676    9.21406009863439
H         5.84434154775170    2.28075457909249   10.22909981231363
C         5.66288850201149    3.30327024668170    8.36780658750817
H         4.88404065225110    3.96484003441519    8.71927316031259
C         7.83042703832062    0.60694991703937    9.64938916231948
C         4.39712904806423    4.89989614879617    2.94091440851161
H         4.04238915013688    4.04006477053176    3.47523977534117
C         3.97200492117497    5.39565813687764    1.70572969602713
H         3.21348407704670    4.99639197768037    1.06549735163784
C         4.74752660141986    6.51041340275565    1.49256637552950
H         4.78276563487142    7.18222231066183    0.65962869080304
C         7.79850825516484    7.39770791506796    3.31442792558292
C         6.52899424706381    7.65046788776416    2.73269340009309
C         6.21409519565419    8.90903335112515    2.24856700822366
H         5.22692273745913    9.09817027376269    1.85258931635414
C         7.15024273102138    9.93984091117093    2.25417868125667
C         8.43652093818980    9.68678789937488    2.74445427247598
H         9.17687287740785   10.47246295140827    2.73418344283355
C         8.73752487635598    8.45331715702699    3.25749435818266
H         9.72338763422966    8.26950934902591    3.66107517431796
C         6.80400494767842   11.21369604270373    1.76310431408782
C         8.75680519940057    5.35430660032099    7.92260077194704
H         7.88251321406135    5.33587294446331    8.54383915857386
C        10.09266795477213    5.50973048845545    8.30142229423810
H        10.48209830915983    5.64565581859797    9.28860321748769
C        10.79758256005547    5.45266075030139    7.12269495799995
H        11.84678284140055    5.55596282088099    6.93597255196664
C         9.39371253742973    5.74121449784188    3.75216690960872
C        10.21062974239078    5.16531616498707    4.75960681553040
C        11.39389435411952    4.52725767910982    4.42749932086061
H        11.98044759882257    4.05205821657240    5.20029798788741
C        11.85042904833499    4.49137079586232    3.11248646771878
C        11.10237985398771    5.12876910275721    2.11596517622927
H        11.45736145970102    5.12560166176498    1.09641277956178
C         9.91368742703673    5.72792497556656    2.43735190134630
H         9.32456593272628    6.19504609042625    1.66061755608882
C        13.05353903363682    3.82992042095277    2.79824373898465

