96
CSD_code = QOVNEV | q = 0 | S = 0 | Stoichiometry = C31H55BN6NiO2 | MND = 5
Ni        0.66349055063193    4.80875616556176    1.74760670954695
O         1.19520108380276    6.46432093409261    1.52857323724609
O        -0.04304023217602    6.75818092797469    2.09311475320876
N         1.89877561712831    3.89139929954434    0.46614136218251
N         2.54360702445851    2.81968970386112    0.95989357780445
N        -0.18045346407830    3.17440892184107    2.10585513054272
N         0.57673718114228    2.08157112482623    2.28119340281407
N         1.91974637096900    4.36019112093266    3.49993930654397
N         2.49076441143264    3.14468068625201    3.44911737175395
C        -0.91683335003593    7.45609637908530    1.17664773321330
C        -2.13849838793136    7.80528170646663    2.02789011432070
C        -1.28781788868149    6.56291765484534   -0.01906918919970
C        -0.20605870886247    8.73141273873931    0.71521006044936
C         0.90074038728086    4.81088703023500   -2.53238123876595
C         3.07228497105798    6.05775454971559   -2.26589317791552
C         1.93897489871757    5.33991132486815   -1.53752186915531
C         2.45086664307095    4.21090783697170   -0.70193254539293
C         3.48119099833974    3.31256717693211   -0.97309811286836
C         3.51545854720705    2.44648040590990    0.10656063400857
C         4.48794493167915    1.34044270181968    0.36811618672048
C         4.95518810194513    0.68685751053056   -0.93174812288516
C         5.67975016546061    1.90585137474829    1.14843918765537
C        -3.47977380573349    3.76343391014102    3.31060447597952
C        -3.37402912274234    3.53778198444501    0.80327789349813
C        -2.57345474738656    3.80344732184119    2.08007876627361
C        -1.45770008113786    2.81789354007007    2.21124088162351
C        -1.52575386321206    1.44563889026887    2.44989057091468
C        -0.21216880966205    1.01136012789242    2.49168297243574
C         0.30207597390393   -0.38249773349095    2.66891592059867
C        -0.70428339101362   -1.25774309903795    3.41361913837833
C         0.62483067706572   -0.98195057630331    1.29562391702992
C         1.82743716931249    6.60080772674425    6.40005589361156
C         2.93643195410250    7.37903992418469    4.27172100448064
C         1.95031612669858    6.38621379541562    4.89325962974020
C         2.38235803943582    4.99232167479199    4.56926195643851
C         3.28362529683024    4.15826665366011    5.23764555570662
C         3.32686383299610    2.99061842943512    4.49726472451263
C         4.08155302184663    1.73257101286616    4.79379218305014
C         3.24705564096643    0.85225568698270    5.73057751760470
C         5.44467120877598    2.03667004797002    5.41453423460209
B         2.11586532287751    2.19099018494979    2.30401071511776
H         2.60435377487287    1.12939632954448    2.44753938327414
H        -2.63720399832976    6.90492039438909    2.37786047035683
H        -2.83836719125474    8.39472520199528    1.44219284372277
H        -1.82913489087940    8.38186929068298    2.89596239877214
H        -0.80888439676443    5.57616901266533    0.10581066056336
H        -0.93400063893471    6.98776418338627   -0.95453116657087
H        -2.36289080254803    6.41718165664493   -0.08457585889554
H         0.73023807479803    8.46759637341319    0.22803258099396
H         0.02052842779634    9.36207567770717    1.57175858469247
H        -0.83584512319349    9.28208657469970    0.02189613623073
H         0.09933295612945    4.29669902105911   -2.00629252145403
H         1.36413338145887    4.10755819944820   -3.22161138450379
H         0.47287554378990    5.62806704644596   -3.10939800073860
H         2.68616158180522    6.92395365836635   -2.79921115171242
H         3.54713390814434    5.39735415882937   -2.98794458733064
H         3.82245474079491    6.39452112776778   -1.55494510577908
H         1.45906628833910    6.04646109569730   -0.85355668380459
H         4.11434686902332    3.29843370292445   -1.83533332344874
H         3.99935110296885    0.57911640121047    0.98150077790868
H         4.10394299114551    0.34957491966334   -1.51847505522299
H         5.58522943112000   -0.17164408446110   -0.71033809786709
H         5.53310639481394    1.38719500577652   -1.52886888399088
H         6.37535990218442    1.11140639510851    1.40950323680764
H         5.33704284416571    2.38883902616254    2.05965720369821
H         6.20411432562851    2.64389939702779    0.54545285694440
H        -4.26396954622856    4.51368917755069    3.22764706497278
H        -2.90367335724108    3.96181636744527    4.21162778179660
H        -3.94846292178473    2.78699479441230    3.40851138299786
H        -4.15639756976107    4.28435537359179    0.68103615424788
H        -3.84021294420978    2.55601350896716    0.84914935060195
H        -2.72431765919594    3.56728618846658   -0.06888187533873
H        -2.11586866158898    4.79805641624232    2.01846587421628
H        -2.41165535169599    0.85900668515642    2.57740056813775
H         1.22459641578530   -0.34070966734678    3.25479187215124
H        -0.26977359979616   -2.23446925550071    3.61407312303887
H        -1.60340163895893   -1.40151590608646    2.81967239144769
H        -0.98132343777702   -0.80157776688236    4.36111678065219
H         1.02487408157403   -1.98718971945294    1.40685786520639
H         1.35699739071828   -0.36753500271890    0.77764351476610
H        -0.27594468637015   -1.03201525693905    0.68751410351185
H         1.42930166137158    7.59199434687347    6.60775604601943
H         2.80061844098716    6.51805417684230    6.87885220913600
H         1.16153783155284    5.86142624197884    6.84029046118630
H         2.94798103015604    7.24575079449410    3.19282766925076
H         2.63787386459733    8.40081496964907    4.49763387956495
H         3.94001260084550    7.21449179554380    4.65983286930728
H         0.97213142810756    6.53958602974780    4.42371947665837
H         3.82469125992530    4.37615745797804    6.13518229951605
H         4.24069222282351    1.18916968535087    3.85921193078877
H         2.28348410616467    0.62838397822826    5.27850844220989
H         3.76422790924076   -0.08271689861553    5.93573004226711
H         3.07214638186769    1.36722768115357    6.67262789781018
H         5.32775264703109    2.50204859836774    6.38964873557728
H         6.01326249252923    2.70926228031067    4.77656477790294
H         6.01183381576316    1.11693638046193    5.54118953432158

