102
CSD_code = QOVNOE | q = 0 | S = 0 | Stoichiometry = C45H51O3P2Rh | MND = 7
Rh        7.06465594975894    0.12730799992593   12.55214290993636
O         7.19983277592075   -1.39697262615994   15.48057064881286
O         9.36101387063709   -0.41167061118441   14.99822211516007
O         7.36189379632383    0.98528449572887   15.71995522073371
P         7.80355290416890   -0.16001497450367   14.62515585735241
P         8.70860140048190   -0.92172660374556   11.42593143561949
C         5.17456214138554    1.17938158352810   13.10601173583320
H         4.88929914993802    1.59670519530210   14.06345612380962
C         4.64157470641171   -0.04904980231101   12.57581710364938
H         4.01808378710675   -0.74561703497601   13.11291038800860
C         5.05717731190383   -0.13731549440989   11.26020703304478
H         4.79860221989875   -0.90937188886846   10.55138200087707
C         5.78080611876302    1.07224461517163   10.93165685737142
H         6.05338645168172    1.35420537780948    9.92499937442640
C         5.71707157729875    1.94318841308132   12.03425488285926
C         6.05827324605680    3.41180641853733   12.09618514361041
H         6.60465238980496    3.60995173097458   13.02584650157405
C        10.46891690508218   -0.51064989740920   11.91697462865253
H        10.50088790222030   -0.89536176874023   12.94334701068041
C         8.68128404352409   -2.78873238019586   11.58607531348959
H         9.35521655682953   -3.23291787374654   10.84716535017548
C         8.54200568592757   -0.72892074748661    9.55985460378738
H         7.45735909205799   -0.82534050695511    9.41856285660349
C        11.59787755292397   -1.15096842608774   11.11810484224785
H        11.45659204514311   -2.22369096410661   11.01118960583380
H        12.54390660745472   -0.98614686867311   11.63381052408359
H        11.67947698172011   -0.70470496933614   10.13007890351583
C        10.64207665738314    1.00359171644092   12.00890470467657
H         9.70783612308493    1.44716578928912   12.35967268245174
H        10.88565675107659    1.43928930555321   11.04417704354805
H        11.43900919869297    1.25451950385594   12.70745621691697
C         9.10988607395476   -3.23749428364807   12.97785224481518
H        10.17522950804414   -3.08856816862465   13.13617059365095
H         8.89459783601465   -4.29778284517139   13.11281759089149
H         8.56448225581395   -2.67081653271921   13.73034779791926
C         7.24644368778199   -3.23160035606716   11.31025170381484
H         6.96334067845267   -3.03457245682980   10.27853209978284
H         6.56634638627412   -2.67589144937264   11.96261970230667
H         7.12309331696133   -4.29751659938265   11.49955770377964
C         8.92972123975673    0.69162145628928    9.15819187149084
H         8.56580775527781    1.40784262781214    9.89377186078805
H         8.49859440692163    0.94773382415222    8.19082794146954
H        10.00914702247004    0.79118724565549    9.07727945181607
C         9.22062278890299   -1.74859270155778    8.64879885375845
H         8.81347370366938   -2.74734317239551    8.78242638535707
H        10.29362822814840   -1.78561507045480    8.80685394229872
H         9.04547240878908   -1.45881278664442    7.61248719249916
C         9.76078101485867   -0.67805266222319   16.29720495605950
C         9.89577512483594   -1.99415119394217   16.71511111982558
H         9.64664694604016   -2.79086955468774   16.03204382351653
C        10.34155089985905   -2.26436215736586   17.99624244906202
H        10.44431035977206   -3.28947838576871   18.31985970011961
C        10.64941788354568   -1.22840914191097   18.86207539315409
H        10.99288409770494   -1.44274242375365   19.86297961144097
C        10.51338912995956    0.08294413862536   18.44064865141924
H        10.75034279985459    0.89564028156197   19.11122918590533
C        10.06964930527677    0.36347791865847   17.16005195016064
H         9.96205419908018    1.38449885720306   16.82638747834318
C         7.48898829959318    2.32758729227383   15.50919311597946
C         6.49940174665402    3.16902961288568   16.00737219382489
H         5.64580521381426    2.73993000085082   16.50957654243111
C         6.61972041814768    4.53814122678161   15.85870589732150
H         5.84423304022471    5.18580276332672   16.23912893062558
C         7.72604862037534    5.07753877030617   15.22236157466574
H         7.82107679002360    6.14742319422414   15.11329367595393
C         8.71046080187230    4.23920759034660   14.72774420168035
H         9.57772391351936    4.65596457578776   14.23635562932576
C         8.59256112768508    2.86565242891022   14.86103108379877
H         9.35155660508756    2.19884230724734   14.47941908344340
C         5.86923463240904   -1.74160008877148   15.40719815943700
C         5.51191274258752   -2.91189041221623   14.75132937559335
H         6.27889349441639   -3.51345485308450   14.28983707178719
C         4.18223663896768   -3.29195035083925   14.70171381920509
H         3.90574014535472   -4.19949308135049   14.18581140804757
C         3.20941655509559   -2.50986374340774   15.30097284031507
H         2.17178922360628   -2.80506084593670   15.25416698859161
C         3.57099826407455   -1.34589462753494   15.95899864082718
H         2.81538379719843   -0.73244395014121   16.42723694356890
C         4.89792676082975   -0.95917035217100   16.01478888005868
H         5.19669035472905   -0.05776870396041   16.52603105351356
C         4.81197348360745    4.27122950241218   12.11820947622848
C         4.89843951352894    5.56349197066123   12.62231741468236
H         5.84538008183599    5.91840398841024   13.00496713118933
C         3.79131067036578    6.39103677010307   12.63768873831829
H         3.87300904280362    7.39333404414290   13.03367745366346
C         2.57865220236335    5.93675260575838   12.14649755675977
H         1.71208112245497    6.58184439600342   12.15789304069954
C         2.48371215570766    4.65177463930517   11.64205941074132
H         1.54065541360990    4.29085698407875   11.25672724497259
C         3.59319986418926    3.82401015069122   11.62703050435895
H         3.51043369672623    2.82027342324865   11.23588234620737
C         6.94480266313375    3.80198076827985   10.93627862899387
C         6.41198301685650    4.06531008423638    9.68022525630366
H         5.34214656301315    4.02290852127550    9.53484701690368
C         7.23988298430197    4.38633512984921    8.61933656012701
H         6.81213852072603    4.58878883895479    7.64766189963046
C         8.61132010020535    4.45142872742826    8.79855716277970
H         9.25607172053152    4.70475758487786    7.96957623984529
C         9.14996536086825    4.19254152236083   10.04679823795046
H        10.21907230135570    4.24282549253052   10.19666831762317
C         8.32090950842313    3.86835040164223   11.10625134952590
H         8.74262986855794    3.66439258645253   12.07918102770541

