85
CSD_code = QOVPIA | q = 1 | S = 0 | Stoichiometry = C35H43N4NiO2(1+) | MND = 4
Ni        7.56050188161942    6.71632526963031    3.65700013581439
C         6.23027943772376    9.23650555657481    4.08190047824511
C         5.70749592038990   10.07592254678381    5.18664782233458
C         5.75189083509101    9.32701850259611    6.30839047399639
C         6.33034289677640    8.02652591546087    5.93351019204767
C         6.46945533140397    6.91611913683770    6.76855752439543
H         6.23586139862768    7.01311623649186    7.81604900072605
C         6.80386096521706    5.67207631046027    6.26739033070292
C         6.79248038753256    4.42932319965412    7.02192772915691
C         7.06467838282000    3.43355670435623    6.13617633161560
C         7.27718477264667    4.07336088128329    4.84531163411848
C         7.56050223376397    3.41549252560281    3.65700022522429
H         7.56050201294148    2.33702445711161    3.65700035140834
C         5.19489500716209   11.44669695262281    4.94134189217133
H         5.78849568774964   11.90372351034888    4.14735410138370
H         5.29021984591214   12.04749328700458    5.84701805190553
C         3.72700475081579   11.41120763951915    4.50050239279624
H         3.61952946561368   10.82145909722594    3.59359413729540
H         3.37863424468207   12.42050079179144    4.30111835793820
H         3.10316199639403   10.97591355048258    5.27730478781333
C         5.29294811469459    9.66005777662310    7.68340842059626
H         5.22844764951568   10.74353609122010    7.78689558863730
H         6.01876468089096    9.29246206010847    8.41173412482174
C         3.91871814863841    9.04733693469320    7.97388580176128
H         3.17490952707060    9.44157901945386    7.28644414882945
H         3.61190823001024    9.28897688741167    8.98763140263194
H         3.94012886521682    7.96527343555758    7.86599015167444
C         6.47398762856528    4.32581716202260    8.47272822267795
H         6.90673940245698    5.17270226590692    9.00803721078934
H         6.91627987098378    3.41516616515371    8.87756398588798
C         4.95889634019988    4.29333923963442    8.69981362354058
H         4.48465159461497    5.18313964615484    8.29235285461341
H         4.74334680664918    4.24105664483031    9.76325483418286
H         4.52137655978318    3.42393871043782    8.21552780032156
C         7.19366694218115    1.97240657165879    6.38575709187464
H         6.72121733333610    1.41376250444517    5.57521584766157
H         6.67929009794168    1.71454446075640    7.31163184106046
C         8.66732347356829    1.56663501897178    6.49640487013036
H         9.20971797756210    1.81716886378214    5.58769260721173
H         8.74610421675506    0.49634847656801    6.66541692882009
H         9.13990063120539    2.08297984067754    7.32821098962441
O         6.28194547390952    9.48031275299461    2.90085532000206
N         6.64534066639961    8.00191645913788    4.64201159928579
N         7.12027627128066    5.41704637646118    4.95779187172597
C         7.84381955968388    4.07336065348574    2.46868862572421
C         8.05632527648297    3.43355642803496    1.17782394038862
C         8.32852261061574    4.42932289535668    0.29207230416566
C         8.31714226184558    5.67207608153165    1.04660963263107
C         8.65154709486669    6.91611902274709    0.54544219690351
C         8.79065899317170    8.02652597837757    1.38048937558890
C         9.36911040583405    9.32701889072684    1.00560895782085
C         9.41350525907287   10.07592297686753    2.12735153500931
C         8.89072337030860    9.23650542600157    3.23209926487130
O         8.83905788333255    9.48031271747356    4.41314434592367
N         8.47566173050685    8.00191638262253    2.67198809918471
N         8.00072829558277    5.41704615635225    2.35620844502173
C         9.92610562070655   11.44669765256798    2.37265735289590
H         9.33250390562856   11.90372457289426    3.16664418773683
H         9.83078168340896   12.04749344028855    1.46698072660084
C        11.39399532487613   11.41120878873787    2.81349866033222
H        11.50146947326891   10.82146119258872    3.72040766430893
H        11.74236561882843   12.42050213823662    3.01288209344385
H        12.01783912001737   10.97591389488457    2.03669753263103
C         9.82805299114849    9.66005817177867   -0.36940904269689
H         9.89255259224986   10.74353651833722   -0.47289643460217
H         9.10223694834368    9.29246165556603   -1.09773478726287
C        11.20228357676566    9.04733848413444   -0.65988602834462
H        11.94609177244794    9.44158165322921    0.02755544406390
H        11.50909331279506    9.28897827538751   -1.67363172835688
H        11.18087394109987    7.96527500615886   -0.55198990116706
H         8.88514027028818    7.01311614954662   -0.50204946133631
C         8.64701530851007    4.32581676595014   -1.15872820601964
H         8.21426323365540    5.17270169972579   -1.69403718575223
H         8.20472327990704    3.41516565126121   -1.56356391176394
C        10.16210661350175    4.29333927629686   -1.38581356930215
H        10.63635106813787    5.18313992027142   -0.97835298947564
H        10.37765609710726    4.24105647589081   -2.44925477772449
H        10.59962663646049    3.42393904762667   -0.90152746253893
C         7.92733676609025    1.97240625232212    0.92824335872567
H         8.39978606044503    1.41376225286661    1.73878482357988
H         8.44171381859874    1.71454393638282    0.00236878940761
C         6.45368018204442    1.56663493867058    0.81759529512443
H         5.91128552425813    1.81716895431615    1.72630742489274
H         6.37489926070517    0.49634840596121    0.64858328452710
H         5.98110329908700    2.08297978204229   -0.01421096461286

