95
CSD_code = QOVQOH | q = 0 | S = 0 | Stoichiometry = C49H39IN2P2RuS | MND = 6
I         7.82560373851252    5.32012526063326   15.29753721621720
Ru        5.07305130064080    5.36009168490166   15.38242443735094
P         5.37621837747822    6.42757918492948   17.42648999629225
P         4.77291747806120    4.36809527283657   13.29554039138896
S         4.54440094849110    2.23934032038703   16.64058483845652
N         4.77898722081873    7.20650150074282   14.45314999086484
N         3.59839622688573    7.68750366621388   14.54012470036403
C         4.90952855171452    3.65999026041960   16.11565518310264
C         2.70176419405876    6.93532043204411   15.22568117992675
C         3.08230984248970    5.64051461520753   15.64236077307663
C         2.07686790550669    4.84625463049950   16.18542546962471
H         2.28628436848722    3.82807816208200   16.48394726351018
C         0.78942961335405    5.32098034821255   16.33990466041018
H         0.03229971870330    4.67368217134958   16.75949265639951
C         0.45101697863902    6.62220672959095   15.97098633168243
H        -0.55659598575019    6.98068276806203   16.12134607545915
C         1.40063479959223    7.43208800696218   15.40383272763144
H         1.18018276512619    8.43954449520254   15.08332878809120
C         5.56594027874765    7.95656190857896   13.55520682450386
C         6.86611178051151    8.35533294430364   13.84763081985397
H         7.30938363159776    8.13170091045654   14.80266654054964
C         7.58952826714995    9.07835420751234   12.91839826727082
H         8.59951749068513    9.37450025485575   13.15721416993117
C         7.02876136415487    9.42388917222552   11.70138882496741
H         7.60337816775626    9.98136446681858   10.97697337690621
C         5.72034125528653    9.06365385837022   11.42132220290310
H         5.26696927697223    9.34270676020219   10.48170339102898
C         4.98995128864251    8.34453512831321   12.34276671281222
H         3.96964459252769    8.05675459466024   12.13274281662928
C         3.88178818634902    6.64876591781538   18.45798471303051
C         3.28282875315773    5.45001187649831   18.84160749274369
H         3.72599824921787    4.51598845418925   18.51604972517918
C         2.15189111886453    5.45085278145419   19.63133049320920
H         1.69564965635792    4.51623840856250   19.92233880582026
C         1.60406761867484    6.65416041404935   20.04714995404730
H         0.71301096411069    6.66128227646526   20.65726671943321
C         2.20833460254317    7.84611604540273   19.69041902861549
H         1.79403947683050    8.78499456896473   20.02833669214818
C         3.34897171192488    7.84931076011656   18.90451842722336
H         3.81930703466820    8.78978421922488   18.65728453767512
C         6.38798510461322    5.67717918490859   18.74569928812609
C         6.57864526717793    6.41530980970399   19.91313923511969
H         6.17373421564787    7.41660890358117   19.98641329264471
C         7.28438028537735    5.87111537417779   20.96703767937898
H         7.43611109279723    6.44952689976652   21.86673356974810
C         7.79459693766025    4.58487787860938   20.87196779168441
H         8.34833819085032    4.16293729042643   21.69752574457766
C         7.59111000834377    3.84317814195500   19.72227226773276
H         7.98275023583465    2.84010027646256   19.64523460131097
C         6.88605487580766    4.38581432764629   18.66176564570523
H         6.73131696511798    3.80251430052729   17.76479170224379
C         6.10121519458595    8.08975726284220   17.27009744165410
C         5.34013229145233    9.13670918377191   16.74962206254440
H         4.29791445861115    8.98327488060375   16.50007949451805
C         5.91849338481928   10.37265115722191   16.52656493971313
H         5.32021127468398   11.17667968176571   16.12333248311072
C         7.26047385575241   10.57380238925851   16.80513412396961
H         7.71026294888151   11.53850610100888   16.62329752281381
C         8.02633489230458    9.53247383325305   17.30278447428779
H         9.07709686820421    9.67809679200565   17.50397351113740
C         7.45468849232569    8.29389687155356   17.53185598173593
H         8.06396772325978    7.47848039465339   17.89602615413630
C         5.49061646013476    2.73373560772105   12.91519537053811
C         6.43563556703519    2.12510733868212   13.72832231939899
H         6.77147254203721    2.61088338962963   14.63246652484865
C         6.95631204017901    0.88952528189974   13.38235580116507
H         7.69064100828686    0.42355126358692   14.02189354052336
C         6.53952811990276    0.25964383628452   12.22376836698758
H         6.94510339650434   -0.70452605620032   11.95501639101492
C         5.60216138456462    0.86879869866815   11.40240049948988
H         5.27848768418727    0.38090269222137   10.49444652909930
C         5.08198452422419    2.10123663440747   11.74137236641837
H         4.35131006629173    2.57833519927366   11.10172178277427
C         5.25472400032954    5.19766176872734   11.73780515339880
C         6.58358465022401    5.60327973793978   11.63677880466174
H         7.25915423735241    5.45456029291303   12.46641711030656
C         7.05040084998815    6.18926783271827   10.47635338810317
H         8.08166030365543    6.50209654327400   10.41535315418757
C         6.19691502773998    6.37166422504420    9.40142972745609
H         6.55696206947684    6.83449141551377    8.49448702309387
C         4.88183382963072    5.94740514918514    9.48699005385089
H         4.21631161786476    6.07162810112194    8.64459070766477
C         4.40886017649670    5.35643494396757   10.64516439092251
H         3.38324700443782    5.01778093783447   10.68832700439580
C         2.99134095138147    4.03980551510030   13.11859445122871
C         2.46841408843630    2.80123379740357   13.47611617906117
H         3.13662654100081    1.99315196775890   13.74193652682429
C         1.09932110309913    2.60565604675615   13.49926098750922
H         0.70172573763182    1.64076464233085   13.77833033515014
C         0.24116080118367    3.64272828058575   13.17591318995504
H        -0.82745131624377    3.48848711913666   13.19802768409373
C         0.75407699024596    4.88378446500677   12.83523954009563
H         0.08805684813365    5.70006576828755   12.59627112602100
C         2.12041728041927    5.08522242607803   12.81532681084817
H         2.51567704060840    6.06350476219748   12.57316493469412

