33
CSD_code = QOVRUO | q = 0 | S = 0 | Stoichiometry = C12H17ClN2Pd | MND = 4
Pd        9.01674102549075    6.62444142268086   10.73519741451069
Cl        8.39531171360253    7.77264923215313    8.94583641852053
N         9.46030906578270    5.50007915194549   12.36193626194199
N        11.07860017637492    7.59134071640267   10.67383310570971
C         7.25686078849169    5.68649489120268   10.89613662465034
C         6.08952628379873    5.78938444986291   10.15047039345176
H         6.02948395680539    6.47628446903605    9.31640187910203
C         4.98122910128690    5.01265027010408   10.46382767426495
H         4.08179562753393    5.10831053463730    9.87209312085806
C         5.01136659101086    4.11674504938799   11.52356776041382
H         4.14049977001109    3.51975822279691   11.75245663502094
C         6.15610494760272    3.99233236935215   12.28316025391894
H         6.19557993080298    3.29985853933218   13.11302889017711
C         7.27362204498007    4.77179731903925   11.97597441065358
C         8.50453763376955    4.71623357345821   12.71258713861825
H         8.61971154689686    4.02599988640033   13.55231384537169
C        10.70207623340008    5.48120854719333   13.08869757716069
H        10.66508252824747    6.25631294075997   13.86720219022771
H        10.83294641785097    4.51047370727290   13.59018762521906
C        11.89810591181411    5.74781727864223   12.17039330638209
H        11.81665410613137    5.10136689347041   11.29212672974016
H        12.80925692643419    5.47509099176312   12.70637135834229
C        12.00493663944629    7.21566575610412   11.74741137956223
H        13.03935536711049    7.42617500545817   11.42858164882939
H        11.79416623111762    7.83971998634463   12.62207734218596
C        11.61967879378301    7.17749768550950    9.37553337991902
H        11.71457714467773    6.08939938791392    9.33092633402157
H        12.60790534958472    7.62784134948801    9.19999161416595
H        10.93729843688921    7.49505934056702    8.58500118823004
C        10.89900217529475    9.04556839983212   10.67472699337543
H        10.42762090797962    9.35940981410588   11.60983607963911
H        10.24573434385731    9.32673522666184    9.84756689094007
H        11.86222228213850    9.56399759112023   10.56514653487501

