85
CSD_code = QOVSAV | q = 0 | S = 0 | Stoichiometry = C34H38Cl2F6N2O2Zr | MND = 10
Zr        6.35717916253841    2.17154227502410   15.98684921544057
Cl        7.42517936281293    1.31737496922523   18.00993072666853
Cl        6.54266813319786    2.98054766628859   13.70658051910412
O         6.62929919288649    0.36677643312037   15.26762865750328
C         7.47531425743206   -0.18687804358961   14.48014839136683
C         7.02916909330847   -1.46635987606764   13.81059890448023
H         6.48862301509584   -2.08289510316455   14.52672308072290
H         7.86955937538394   -2.02226744388917   13.40852550623133
H         6.34813438824424   -1.21595708056542   12.99702448629646
C         8.73995542578771    0.30055978010611   14.22177449227491
H         9.37022133842061   -0.26917785684123   13.55744936956081
C         9.29228333223934    1.48371340644076   14.75716138280700
C        10.71567545170900    1.79526113312083   14.36980350156254
H        11.25013614652677    0.88646916912517   14.10881962359056
H        11.23703318314333    2.30198881941704   15.17963230740783
H        10.71428692521289    2.45290015219288   13.50097635076638
N         8.63211119087831    2.28112158438516   15.55440628305711
C         9.20615002290175    3.47800066970025   15.98516929513159
C         9.65542528211762    3.61694836018073   17.30364749624674
H         9.59263323250069    2.77052666070437   17.97210038765468
C        10.17146449631202    4.81985019840801   17.74027595313189
H        10.51856933190383    4.92305075551106   18.75692791636781
C        10.26322361704169    5.89339569701272   16.86245693341602
C         9.83262824674662    5.76400027180612   15.54570199561543
H         9.91893250299780    6.60108903507562   14.86926703126969
C         9.31090633605943    4.56548010474086   15.10795085282659
H         8.96069077920063    4.45544023548287   14.09118302509211
C        10.77297914209022    7.22122041561803   17.32745425118733
F        11.62077840955966    7.79588133709333   16.46128194613022
F        11.40359709708965    7.17063675290961   18.50947356173709
F         9.76333464545761    8.11319705905872   17.49498847409759
O         6.59620343839248    3.97730569126163   16.83057040497392
C         6.71914648126384    5.24250404600161   16.77524767531923
C         6.39414170486483    5.95388073192010   15.49019843377013
H         7.10834547876142    6.74871009456912   15.29446878428584
H         5.40510697944846    6.40460529825089   15.56922863965239
H         6.38271617422842    5.24202603824523   14.66358496655089
C         7.13228325629569    6.02015665815635   17.87625011253140
H         7.28250627028517    7.07141019668974   17.69017074685201
C         7.34762668189863    5.58165629351964   19.16954771640751
C         7.82090605545947    6.58946792410654   20.17184153110011
H         6.99674789641223    7.20199399264078   20.53425465621637
H         8.52950337152608    7.26168985639285   19.69420630755263
H         8.30074607482559    6.10960510755950   21.02013644752790
N         7.17700074273571    4.30231891371418   19.54000329492611
H         7.10699077475775    3.59501106501951   18.79961461049683
C         7.12232565532415    3.79705570543322   20.83934823337038
C         6.49916105349143    4.49448241707952   21.87595538948256
H         6.02273100982075    5.44201532665102   21.68656692384499
C         6.44779615357970    3.95594274110079   23.14589259323231
H         5.96266412286815    4.49499853640070   23.94503925873094
C         7.00594090404759    2.70793682381919   23.39168613553814
C         7.59527030267531    1.98991773626451   22.35775332039349
H         8.00596742454615    1.01082477166831   22.54724970662469
C         7.64911231998208    2.52826111539499   21.08863191672609
H         8.06537206540421    1.96144976083568   20.27082234713657
C         6.97309642497337    2.15998497377426   24.78753409709440
F         5.80363575661593    2.39649148021033   25.40811336230882
F         7.92180069540387    2.71788716808658   25.57033187053100
F         7.17393143091192    0.83708503316926   24.84514409864986
C         4.02378099330001    3.37122209464666   16.96698664368314
C         3.88437732857374    3.00718554269924   15.60383238759185
C         4.05728981930803    1.60184384951902   15.49817813525355
C         4.33158037184155    1.09494917916448   16.81181705739852
C         4.32612566407111    2.19377270432180   17.70440128607466
C         3.68625969398021    4.70028950825756   17.57410066880025
H         4.57429107450253    5.29531811895582   17.80889837303595
H         3.12969063204781    4.55509299479431   18.49936552614702
H         3.06358694219086    5.28147201724772   16.89667481072140
C         3.42279681070272    3.87960475015880   14.47106519148504
H         2.43829733023279    3.55510706250275   14.12679235093523
H         4.10773770770119    3.82036307353642   13.62460970239049
H         3.34891935385679    4.92060705922530   14.77723109858321
C         3.80861942482853    0.81129972446415   14.24217248934966
H         4.35772602607266    1.23761075183070   13.39831562746784
H         2.74494727856825    0.83194593131420   13.98985406318853
H         4.10606550061693   -0.22945412119534   14.36502929784919
C         4.44154149113376   -0.34537083616675   17.23351647192602
H         4.59172300669504   -0.99906564773829   16.37495546316584
H         3.52725187186570   -0.65875203308871   17.74420343812117
H         5.27421734568705   -0.48681378969789   17.92667435046101
C         4.41650932145334    2.08530626599129   19.20004535844507
H         3.50541043296291    1.63310587860404   19.59892111599039
H         4.53677047940379    3.06504895551892   19.65765888262622
H         5.25736528084466    1.46019792957031   19.49929470876298

