56
CSD_code = QOVSOJ | q = 0 | S = 0 | Stoichiometry = C22H27MnN2O4 | MND = 6
Mn        1.74495006047348   -0.02441364547565   -2.77309407145426
O         3.21824041857244    0.29390508812358   -1.76006368318706
O         0.34870496931940   -0.55589681103502   -3.81150346043501
O         1.49004633944867   -1.72327746050150   -1.72414916305959
O         2.73039025417860   -1.64639108376924   -3.49828159243329
N         0.71523010590876    1.15734919601626   -1.60632208295612
N         2.18353108187704    1.35652441150207   -4.13890071449365
C         3.56720029596577    1.26681122055605   -0.98578879651170
C         4.92011202416115    1.44515907890418   -0.61606886975455
C         5.29088110888555    2.44195819768615    0.24973349964428
C         4.33333803829020    3.29557943932435    0.80602167829508
C         3.00946421980630    3.14084520788398    0.47939282175039
C         2.59376055436374    2.15467735968983   -0.43021807109945
C         1.21283382913751    1.96909615724376   -0.71886247877848
C        -0.74286983496340    1.08760357432364   -1.60008059510709
C        -1.34838841581749    2.26993651226791   -2.36833584680643
C        -2.84725164922203    2.09315533630965   -2.56880666224768
C        -0.36487800144523    0.02128188240287   -4.71733807741848
C        -1.62781996308592   -0.49869244518139   -5.08198335381239
C        -2.37594998664629    0.08842726438912   -6.07030185179794
C        -1.89640348145520    1.20738019207381   -6.75735697099925
C        -0.66843353501773    1.72973734202470   -6.43711923662434
C         0.11310553559171    1.17720904455593   -5.40906450517856
C         1.39739055194526    1.71474681919778   -5.11051038161887
C         3.51211596426060    1.94917789181722   -4.17045436362156
C         4.57954788673237    0.91921678961014   -4.56267432485606
C         4.36144095228921    0.38570295750196   -5.97253236587597
C         2.24504633648964   -2.29949034926773   -2.54384230466098
C         2.56721415357162   -3.76938044319251   -2.38462522725427
H         5.65026574176833    0.77421872808292   -1.04354976220440
H         6.33143742778458    2.56598689522574    0.51173334587731
H         4.63883732234969    4.06889584375098    1.49408825721288
H         2.26307603251140    3.79226692893305    0.91250228153827
H         0.52342109149227    2.53054266979734   -0.08470766797308
H        -1.04943944196487    0.14991990608931   -2.06594917406192
H        -1.11508244905619    1.09333653614045   -0.56790172389876
H        -1.15261514439995    3.19391347156612   -1.81936967777527
H        -0.85426014834371    2.34665294487889   -3.33823274398736
H        -3.26105789468617    2.95015526453260   -3.09409483390909
H        -3.04489012171449    1.20242089941095   -3.15999916344021
H        -3.35577115385218    1.99580480099314   -1.61210848924522
H        -1.98469557881924   -1.36997079359501   -4.55238464922674
H        -3.34332029402737   -0.31918437246716   -6.32546997047771
H        -2.49186828643236    1.65271243269027   -7.53947012524146
H        -0.28898809932486    2.59102544926491   -6.96946766610720
H         1.74508250103288    2.48596364165944   -5.80282792566309
H         3.53393748629195    2.77820000167132   -4.89153518350283
H         3.74109566730638    2.34927365822640   -3.17853298360992
H         5.55787663695982    1.39851897935647   -4.48604250815158
H         4.53904305380961    0.08899552703951   -3.85570428630325
H         3.41387976085537   -0.14658032447649   -6.02425743024253
H         4.35351392625040    1.19569109866714   -6.70076847672543
H         5.15497111890981   -0.30782829849523   -6.23811010507184
H         2.10428243046551   -4.15258242036330   -1.48007419985108
H         2.19635389046161   -4.31257708140091   -3.25115566016151
H         3.64606471075398   -3.89841111215692   -2.33807842543748

