109
CSD_code = QOVXAA | q = 0 | S = 0 | Stoichiometry = C52H52NiP4 | MND = 4
Ni        9.58751468057657   10.56796161714923    4.15128927253107
P         9.80808495400349   10.66333945112817    1.92134523815669
C         8.59599447054465    9.97464985026354    0.73227990639907
C         7.57128600952958   10.74598295620491    0.19534134370709
H         7.51846186102371   11.80265547822038    0.41393655643199
C         6.61435369851655   10.17277042163444   -0.62312643764144
H         5.82560289582822   10.78575276606175   -1.03657261815202
C         6.66254516356502    8.81972691740022   -0.91185544744576
H         5.91371207724446    8.37366504344307   -1.55025050843872
C         7.67529399150767    8.04054282844557   -0.37547379606363
H         7.71756398698003    6.98308327401338   -0.59484032720663
C         8.63026073230419    8.61225011436004    0.44251835429993
H         9.41632836059004    8.00096956793661    0.86467649618229
C        11.28774224815183    9.82478071886694    1.24091305348391
C        11.77532307009280    8.74109990945674    1.96244614445074
H        11.27747155164634    8.46951615891205    2.88442095814506
C        12.87572497625827    8.02880634350029    1.52302370389880
H        13.23644038979101    7.18567244725022    2.09603655271068
C        13.51118147945072    8.40516890427726    0.35159776203462
H        14.37730252067459    7.86068389716503    0.00385539464218
C        13.03249289627751    9.48394361529754   -0.37469668061436
H        13.52689508175104    9.77643332942595   -1.29051279593889
C        11.92329981930730   10.18751537263402    0.05994908387452
H        11.56132676442215   11.01916302208798   -0.52495899971056
C        10.01465725954723   12.36219723982813    1.23415164954121
H         9.94014771182646   12.37766772245087    0.14843787295056
H        10.98898255903511   12.73608270226418    1.54718605758863
H         9.25052002879431   13.01157134103254    1.65983050087986
P         7.80145628797714   11.81494869661834    4.70654009152700
C         6.86879017987644   11.49477199611452    6.24772826450353
C         7.10287619227321   12.22936297915022    7.40696580304611
H         7.79084136633266   13.06308228708726    7.38277405786934
C         6.45266221015968   11.90912500969057    8.58473654928663
H         6.63568377619217   12.49407929269213    9.47536005903402
C         5.56813113333323   10.84397403544254    8.62742740487974
H         5.06346615037847   10.59368584192086    9.54929247446559
C         5.33546099856443   10.10174040896215    7.48125306196477
H         4.64974069696180    9.26654678817744    7.50487376305524
C         5.98171282955003   10.42328637143232    6.30191815983639
H         5.80100002582358    9.83129594347341    5.41698433896325
C         7.98818277407992   13.63341966078127    4.80026370943257
C         6.96843046219593   14.48568316247982    5.21125703034083
H         6.02637260373531   14.07884430067586    5.55239411555560
C         7.16314352253153   15.85392411286770    5.19871808891169
H         6.37027287860253   16.51271837782268    5.52409549174566
C         8.36920165415895   16.38567340989355    4.76757143459724
H         8.51255147592198   17.45666206557053    4.75706293012545
C         9.38576130973287   15.54326839410743    4.35243060552119
H        10.32618292296539   15.95196293884753    4.01100959523379
C         9.19225802233323   14.17374470916673    4.37369909632583
H         9.97622658129235   13.49559128673221    4.05845931328478
C         6.38607855270189   11.80383917733100    3.51712161206318
H         5.53760664326610   12.35625941470457    3.91740808192521
H         6.08870602508747   10.78223641437111    3.29451731893968
H         6.72277763295723   12.27114343600636    2.59363968291225
P         9.15932638841424    8.56204917758107    5.05693886143419
C        10.14344070412133    7.05257629406786    4.72693868719226
C        11.20605257345070    6.67332526924219    5.53944972209558
H        11.42279470786496    7.22871659749816    6.44032807007190
C        11.99230204728133    5.58475521754587    5.20624657331958
H        12.81302383417297    5.29924094693576    5.84944961178359
C        11.73338644869073    4.86339264815527    4.05341628964446
H        12.34946538822359    4.01459680633224    3.79407300071457
C        10.68103795648860    5.23754418006536    3.23294541260656
H        10.47481057026419    4.68022416799387    2.33017835551725
C         9.89639216112480    6.32476134512181    3.56477059488243
H         9.07937576960436    6.61893082446604    2.91992918460947
C         7.51912203493405    7.84987319200581    4.65876905061745
C         6.95719190929433    8.22334990095145    3.44331630346381
H         7.49812619369964    8.92213080297570    2.81824313199046
C         5.73247163873065    7.72409517542464    3.04053807448114
H         5.31489299468244    8.02290959865605    2.08889856961466
C         5.04741227299035    6.84606699045176    3.86353163267591
H         4.08583597243637    6.45628560780552    3.56190900969166
C         5.59947720469725    6.46764020280040    5.07704103433150
H         5.06598958787858    5.78010039317522    5.71841349174383
C         6.83099934324286    6.95856879291581    5.47269308386737
H         7.24778703214077    6.64455034018836    6.41744754162895
C         9.12120031961534    8.53596458945296    6.90055553326102
H         9.09142731339293    7.52259074005640    7.29645912600645
H         8.24226454818257    9.09071458889633    7.22731555230856
H        10.00455255053629    9.04838791124033    7.27990729515324
P        11.58176938818746   11.25002634739150    4.93288932690906
C        11.67035627374177   12.01413007457809    6.59395099795995
C        10.52317714907331   11.98289000767059    7.37292661102338
H         9.62219115263233   11.56056786858454    6.94424243576451
C        10.53058877301096   12.47911372925517    8.66413033504054
H         9.63180722335408   12.44261770003272    9.26316402600116
C        11.69380871429494   13.01927363162868    9.18432520910395
H        11.70786921653879   13.41196606149696   10.19094841241059
C        12.84469963197201   13.05692762991612    8.41153525325712
H        13.75251194217396   13.47981108786077    8.81845705683409
C        12.83793278163870   12.55285889901146    7.12464446797723
H        13.73865900842716   12.58858249479444    6.52732924907028
C        12.61653174736332   12.41416060894764    3.97314273829490
C        12.60167533819874   13.78241834051767    4.23035343900959
H        12.03612783177295   14.16327972617079    5.06945226036666
C        13.31565512700937   14.65538065571480    3.42999184618049
H        13.30376589518628   15.71455215062373    3.64658276858697
C        14.04597987724897   14.17849875423586    2.35382738382896
H        14.59986167207120   14.86265519789200    1.72746380987114
C        14.06185477519639   12.81949626539881    2.08641319924347
H        14.62694338222776   12.43727524247722    1.24804773158043
C        13.35226085986346   11.94494672007839    2.88855766943885
H        13.36476822603009   10.88860166265385    2.66551942813654
C        12.84573079536873    9.93508208557990    5.23624240561710
H        13.80639654313082   10.37358400802372    5.50130912258189
H        12.95705392616809    9.30755206111892    4.35560511534417
H        12.49007707405747    9.31418517829015    6.05639447905612

