141
CSD_code = QOVYUX | q = 0 | S = 0 | Stoichiometry = C56H76N2O6W | MND = 6
W         5.18684985033316    7.36569419043615    1.18487841008613
O         6.31663536386708    6.48927265216098    2.53709496058661
N         6.96892229933619    7.36157472921377    0.38949517436217
O         4.96365077103903    8.26229094796794   -0.59462954427289
N         3.34502468284329    7.75088025253550    1.74099808605030
O         4.17590117108664    5.78664245606047    0.60021180222692
O         5.29226634192879    9.14710644084046    2.05603429477594
O         9.62683238722195    7.78294172214693   -0.51821848329693
C         8.07301455549302    6.99633086286430    1.13781245322789
C         7.67431547043039    6.48067657798216    2.37907932105793
C         8.66519219577748    6.06345239061950    3.26570858552972
C         9.97595262316591    6.17246648051944    2.80551487697412
H        10.74876688368768    5.83001439700740    3.46761075361099
C        10.38188516738396    6.69457605066753    1.57185701829127
C         9.38240542599695    7.16757918720812    0.71026041165739
C         8.27007034330964    5.54937153223331    4.63820970929954
C        11.85042064999069    6.69344530103918    1.16519275626853
O         0.64174512677028    8.62217900368774    1.79399830884852
C         7.25638925729193    8.08530039550960   -0.75612065896401
C         6.07397032252837    8.59536147482707   -1.31302217574680
C         6.17529338161597    9.36367844272462   -2.47117799309999
C         7.46718296315403    9.57442787530707   -2.94922630872781
H         7.55980796312594   10.16891762311717   -3.83852828496024
C         8.65351584895103    9.10408804286656   -2.37478898994345
C         8.54308726297526    8.31856280001205   -1.21856562694058
C         4.91560895283173    9.93034249471121   -3.10125278634512
C        10.00721505575641    9.49522754751241   -2.95522770426352
C         2.31195423677167    7.00265954586227    1.19884990444357
C         2.81212601203495    5.86429091519055    0.54999266880473
C         1.90834664178832    5.01218328601946   -0.08045731564157
C         0.56356371815261    5.35797315800583    0.03762813482263
H        -0.14747532820195    4.69184537083086   -0.41360084015305
C         0.05635442552723    6.49988651265573    0.66657688021586
C         0.98043422561491    7.39248480012454    1.22854605635122
C         2.43126660749007    3.82425649658138   -0.86778797910973
C        -1.44539890452841    6.73518532970935    0.77316755134198
C         2.98755603556746    9.04992943191571    2.07279546839277
C         4.13306393547660    9.83996989599185    2.25411866095990
C         3.96218160168844   11.18877836901422    2.55814527243934
C         2.64354088980282   11.62878490614458    2.64737284058158
H         2.49667637218420   12.66485588696209    2.88752462531063
C         1.49593310648673   10.85976726950533    2.42526022725258
C         1.67734484881495    9.50745253922937    2.10157723498265
C         5.18330902655852   12.07737576158476    2.71384762032231
C         0.11650325590113   11.50746711973188    2.46347105739661
C         9.46923503864276    5.13903907359625    5.49412367262758
H        10.13807450244347    5.98042098190070    5.65818732871468
H        10.02340359675389    4.32871335401031    5.02654876813904
H         9.11867662652750    4.79231851608398    6.46398943867158
C         7.50536629488832    6.67127628213353    5.35692616355138
H         8.15109024785184    7.53576327806748    5.49831423716014
H         6.63948965597489    6.97951634592960    4.77105301589071
H         7.16181042302933    6.33029860108036    6.33141785738232
C         7.34973216543469    4.33463214954973    4.45460538138169
H         7.87735366469335    3.53739020977922    3.93481918327800
H         6.47275729875669    4.60812682333433    3.87076958486779
H         7.02060580902817    3.96073902044129    5.42199918314061
C        12.78263386516903    6.15208023465434    2.25393746138271
H        13.80653367518494    6.18037308476807    1.88632547986828
H        12.54810452599700    5.11994923949581    2.50229245452180
H        12.73357444677022    6.76020935896560    3.15396788261545
C        12.30104192587906    8.12063695155321    0.83563396185610
H        13.35665509167258    8.12994421793879    0.57252509384924
H        11.73743914907257    8.51499946684319   -0.00047961329101
H        12.15232392923377    8.76985669671895    1.69606409463548
C        11.99736018653312    5.79141260192267   -0.06851950566273
H        13.02112168259464    5.81692598163491   -0.43559110427216
H        11.74568523818491    4.76439763372001    0.18829549436251
H        11.33615884270955    6.11371252067012   -0.86594010371896
C         5.19016718340394   10.72835796006446   -4.37694418611850
H         5.66002796948410   10.10419444337715   -5.13318411960248
H         5.82938312816944   11.58390475554185   -4.17310990454628
H         4.25008817934302   11.09877504611098   -4.78024539089098
C         4.24294659714169   10.84970717527390   -2.07112303572655
H         4.03552247922420   10.30475764041701   -1.15089550377569
H         3.30494179681051   11.23602135743235   -2.46459552625957
H         4.89503178473533   11.68871247039086   -1.83715336116113
C         3.97717669747561    8.76242662088774   -3.43601674003249
H         3.73889797596483    8.19912744563556   -2.53587266034172
H         3.05062592765682    9.13482470147534   -3.86815131983080
H         4.45009266788596    8.09180333234331   -4.15075390435713
C         9.90445437773529   10.20619659090777   -4.30926646616020
H         9.39234416776856    9.58526829770373   -5.04032162209292
H        10.90823404114374   10.40466801110353   -4.67976649118777
H         9.39083365796447   11.16047910861014   -4.22418165936057
C        10.67848148559983   10.45754636901108   -1.96529360033871
H        10.10817863008263   11.38189300686252   -1.89972938439471
H        10.72661712992420   10.02062942577749   -0.97331896877898
H        11.68903865518255   10.69392160620106   -2.29122726031085
C        10.87299379620641    8.24708897768418   -3.16112971878817
H        10.37406958146740    7.55361700878757   -3.83501484110356
H        11.83117720348579    8.52342045465156   -3.59631173755942
H        11.05848978224832    7.74364548636009   -2.22079697816344
C         1.31912346117324    2.99376748084718   -1.51015969669866
H         0.66025532039177    2.57346930889984   -0.75420406427753
H         1.76000693611554    2.17104233092705   -2.06903214420919
H         0.73227599373454    3.59442260471993   -2.20068077681475
C         3.34822719164236    4.36909841640308   -1.97439624470416
H         2.77897065725115    4.99271685609865   -2.66105196095468
H         4.15041690966019    4.97203538778945   -1.54642045747756
H         3.79222744583090    3.54900954029389   -2.53500656386602
C         3.24054147614521    2.92636849425769    0.07772918418753
H         3.65686824079951    2.08210096625795   -0.46801147784522
H         4.05787930383165    3.48776853559639    0.52579330820031
H         2.60324756692353    2.54585604818861    0.87345105708682
C        -2.28139303208321    5.63412592511995    0.11266607296979
H        -2.08704303839166    5.57733646921146   -0.95562726324323
H        -3.33643014062691    5.86391505735495    0.24845664913953
H        -2.09133483299822    4.66459424215271    0.56633378561067
C        -1.81212654690160    8.06336223784791    0.10288915604480
H        -1.50507681174000    8.05547366201809   -0.94099623868979
H        -2.88739381157499    8.22308679014522    0.14725854019364
H        -1.32320785218859    8.88898555327800    0.60438569859003
C        -1.81521568231952    6.77265907187053    2.26278629642034
H        -1.23500264646303    7.52360533615930    2.78842421315142
H        -1.61622029609092    5.80586278715463    2.72067707526719
H        -2.87142251743435    7.00353113567710    2.38394512587260
C         4.83087162378121   13.52554169133695    3.05766609791638
H         5.74597061094138   14.10499336964944    3.16037156371978
H         4.23163486678728   13.97917822641982    2.27196147727313
H         4.28781873805125   13.58164312286967    3.99803069294553
C         5.95189138483387   12.05320834215339    1.38363211996784
H         6.21376801356197   11.03079079709421    1.10978161578772
H         6.86717594991747   12.63592369122638    1.46495481071652
H         5.33852995002153   12.47537101009216    0.59041279742443
C         6.06639634526277   11.50161479146547    3.82916086770037
H         6.96345443784705   12.10539582269943    3.95002715456899
H         6.36289112917942   10.48296684492690    3.58800811831282
H         5.52369282871163   11.49189244045495    4.77227861039462
C         0.12442709415464   12.90802766464738    3.08795295115423
H         0.67799395138720   13.61878947735293    2.47975305933442
H         0.54657496541981   12.88639429867517    4.08974454353211
H        -0.90006070837312   13.26763318264815    3.16059479133825
C        -0.37717739452787   11.63437120619776    1.01551590194757
H        -0.34064520640756   10.67504518982257    0.50970959455974
H         0.25539025215911   12.32860445963725    0.46602821408971
H        -1.40064985252877   12.00231520596401    0.99314310262836
C        -0.85084749249738   10.65243249773491    3.29004190538539
H        -0.97685485635249    9.67045214135299    2.85255200009262
H        -1.82610116837368   11.13261257375732    3.33873185845822
H        -0.47226456235082   10.53563932858045    4.30344941248021

