87
CSD_code = QOWGEP | q = 1 | S = 0 | Stoichiometry = C36H38AgN8O4(1+) | MND = 4
Ag       31.52054507621601    8.32203904511175    8.68133628508152
N        32.82255478278797    6.35310543990357    8.39415396199399
N        32.35509064193424    5.39324595776510    7.57283729796777
N        31.21338328374560    7.87505031276288    6.48400558449426
N        30.98200775027760    6.60449289376287    6.08154622174911
N        32.74773889960647   10.35248638745171    8.85443700874700
N        32.30647988263389   11.28692922728476    9.71830372825256
N        31.39570730773504    8.75669032486140   10.89962236133679
N        31.12522833487689   10.01423616554748   11.31832564094721
O        29.20459970186795    2.74076542070740   11.15547810948745
O        29.46357849034512    4.56104936261169   12.49399034212946
O        28.97233149247038   12.01533586586918    5.06290442934481
O        28.71982597004128   13.79591878405708    6.45527006531113
C        34.86736848968574    6.83711278500261    9.65246046677355
H        34.32509380221863    7.75562165318045    9.88380232748515
H        35.81878713549904    7.08263662362067    9.18573788105318
H        35.07728965138094    6.29911156168583   10.57506964707377
C        34.05025022757363    5.99753932125918    8.74359519168467
C        34.37610051875386    4.77419397561912    8.13902080613355
H        35.29258302447562    4.23085830758343    8.23628862274859
C        33.27416597937532    4.41154375869872    7.39541937112880
C        33.04675427674410    3.20920803228584    6.55850257995961
H        32.93367227106560    3.47675283530499    5.50812774358467
H        32.15761773273847    2.66588419672105    6.87763354412331
H        33.90204682995549    2.54596847555538    6.64775524738355
C        31.46830021311117   10.08458192978998    5.42815968387620
H        31.72218956669130   10.39376893201869    6.44083611655060
H        30.58895084781481   10.63122994340101    5.08819186208183
H        32.28696590147813   10.33177688823296    4.75570140464880
C        31.21150263023438    8.62977781606861    5.39295165615532
C        30.95599083656473    7.83062115738632    4.26806128969791
H        30.88081410446840    8.16167729399152    3.25371083477624
C        30.81810325143500    6.54412014931654    4.73545388472997
C        30.52850849725208    5.29284452558950    3.99465435564371
H        29.64561224925932    4.79310975639891    4.39203382484405
H        31.36955704573873    4.60129221676638    4.03963113135352
H        30.34580660467761    5.53312482411106    2.95143594585835
C        31.02655443611885    5.51196557045668    7.01898238295714
H        30.81823998106308    4.59165669413854    6.45951428732680
C        29.99485369725074    5.65089027024822    8.12902761088458
C        30.11960047323377    4.83162269079436    9.25143596268662
H        30.96119061028745    4.16342952686837    9.35762036817610
C        29.13295963896459    4.86037654925180   10.20945313102700
C        28.00989181937680    5.65048216370101   10.09688156414624
H        27.24505881940099    5.63827344531161   10.85711679287147
C        27.88328513232871    6.44602846295794    8.96892831566987
H        26.99224609971368    7.03939603669228    8.83831404420135
C        28.86932302914013    6.45782197192654    7.99425851035929
H        28.72516729099117    7.05334709192265    7.10403549097459
C        29.28739590845100    3.89382685782226   11.49885219243605
C        34.69840381269639    9.96987833018542    7.42419671042225
H        34.18209112035969    9.02739735513760    7.23366094629375
H        35.69679763337951    9.76836085389029    7.80618168394424
H        34.80286330758788   10.51992331639254    6.49077967725545
C        33.92319705785270   10.76716762701084    8.40502685995442
C        34.24081558261875   12.00306709302377    8.98809778349404
H        35.11906183292292   12.58981218480692    8.81772180317664
C        33.18979415604755   12.31070258286934    9.82441971469420
C        32.97748037821549   13.49757222809142   10.68691728083088
H        32.04242384486076   14.00243005427457   10.44470339447220
H        33.79309963481024   14.19859424581997   10.53576499074606
H        32.96061498372316   13.21953453306178   11.74068929376476
C        31.85558454401824    6.56995671276692   11.93287418154812
H        32.04143515243064    6.26935626591216   10.90299944156325
H        31.03665272047670    5.98025377348041   12.34426640368576
H        32.73843133841621    6.37012184482371   12.53635406251281
C        31.52402172107412    8.00889964636124   11.98770284540255
C        31.31519963320500    8.79847975433043   13.12903602370278
H        31.34054092689950    8.46887515033214   14.14631320223010
C        31.06713218459339   10.07248835969057   12.67335228091603
C        30.76742964722786   11.30900487882175   13.43464673705271
H        30.67166129440796   11.06159852350057   14.48779802527069
H        29.83437338585167   11.76270491213946   13.10177233176586
H        31.56713082377273   12.04223462634109   13.33154057294202
C        31.03561539595720   11.10283219408267   10.37971204125250
H        30.82551236410378   12.01383981440694   10.95334761505657
C        29.92932465715992   10.90491976674122    9.35377769743134
C        29.90604717395948   11.75057368143304    8.24427839496827
H        30.68488111611780   12.48273741308362    8.09122244928456
C        28.85627417888324   11.66104581321220    7.36020368614719
C        27.80988367876911   10.78199810132912    7.53579962145288
H        26.99229823901373   10.74663543669810    6.83336269941230
C        27.82982668183897    9.95944826751559    8.65097286132494
H        27.00102298574426    9.29391013184859    8.83209965557186
C        28.88343029073068   10.00879203042290    9.55156123700064
H        28.84876949094810    9.39152647259863   10.43814734669467
C        28.84200679071478   12.65540654404624    6.08273133668133

