50
CSD_code = QOWLOD | q = 0 | S = 0 | Stoichiometry = C18H24AgF3O2Si2 | MND = 4
Ag        2.40909867111591    0.81924191850134    0.64993797891423
Si        2.88988548488827    1.02998389670876    4.09604539664578
Si       -0.02775804710852    3.33292483010957    0.81981286934819
O         2.35851400623387    0.58318910436094   -1.59953617780460
O         3.89679587273685   -0.87380114065669    0.42688493350894
C         1.91799259623621    1.71356924684505    2.62939765717591
C         1.19845280759350    2.29585564215547    1.81502327768142
C         2.86474214999703   -0.06506695543962   -3.82268164279865
C         3.05233956903664   -0.19343927452326   -2.28999526022994
C         3.96498945721409   -1.16503274161078   -1.92477373692221
C         4.32556277657904   -1.46337037717963   -0.59032199641117
C         5.32290573217096   -2.54981857104365   -0.37860133069753
C         6.18367443028926   -2.45053863026496    0.71257699839011
C         7.12495750535788   -3.43183213950549    0.95714942882131
C         7.20555936023455   -4.53559053442478    0.12391741287531
C         6.33720716916320   -4.65484163894555   -0.94900929563070
C         5.40180084195723   -3.66846048303886   -1.20363288879293
C         2.14575855578069    1.79136740097702    5.67634275808195
C         4.70045560774862    1.55256765323749    3.81626777293991
C         2.70830901853433   -0.86326838182409    4.02783942051613
C        -1.15717889214749    4.21206436435145    2.07932355469813
C         1.00141230474200    4.55659440849622   -0.21231568039536
C        -0.96822153845493    2.10662700306055   -0.28970084220267
F         1.97847165369554    0.87630890121559   -4.15683902815197
F         4.01490874986854    0.24443521805896   -4.45290717920839
F         2.43684538172598   -1.21534164162585   -4.38009539499561
H         4.45386464669381   -1.70666526900576   -2.71762954356537
H         6.10395287479674   -1.58714782483853    1.35663533117567
H         7.79563787824158   -3.33922565471036    1.79892969322354
H         7.93936880223296   -5.30518116000645    0.31359714549915
H         6.38905948162090   -5.52260221389710   -1.59019026058555
H         4.71577682284445   -3.78273223514112   -2.02904529049091
H         2.66443756709507    1.43958953652367    6.56291230274531
H         1.09747829105708    1.52990650496128    5.78224216243176
H         2.21399270153413    2.87467500184467    5.66210746125366
H         5.03737359352641    1.21751347560978    2.83728662794565
H         5.36342726821298    1.12212783553179    4.56059791333109
H         4.81748676758953    2.63146298254469    3.85443605457050
H         3.32635762398356   -1.35673941991535    4.77189567616346
H         3.00989009858971   -1.23189941667818    3.04865629350622
H         1.68088122141785   -1.17247045541399    4.19599294514267
H        -1.91974604980103    4.79884168066694    1.57672785348275
H        -0.59084363278630    4.88447453762910    2.71599460165562
H        -1.66162110590930    3.49806907414320    2.72264385696303
H         1.60073488738369    5.20929045483861    0.41562165796151
H         0.36893590134939    5.18455598384036   -0.83249725697424
H         1.67676743550353    4.01648824745929   -0.87131666105900
H        -1.62842776044307    2.61576522823332   -0.98513864447171
H        -1.57217784256051    1.41779391843024    0.29413363737268
H        -0.26408869737597    1.51818210953668   -0.87660256269690

