134
CSD_code = QOWREB | q = 1 | S = 0 | Stoichiometry = C68H61ClOsP3(1+) | MND = 7
Os        3.08089757541025    4.16468856499528    4.80077950512871
P         4.21376397046715    2.16218755101550    4.27537102303270
P         1.82672900437105    6.14133614371998    5.14679459620846
P         6.21091205797708    5.11727025651242    8.13960010262166
Cl        1.31885810933053    3.09647047952708    5.91206390991745
C         4.14642393514931    4.16121439987788    6.53739317111457
H         3.85829992534508    3.51408584355798    7.36472175439813
C         5.23228739676054    4.96242492772223    6.65746501671166
C         5.58646322823158    5.69185029179307    5.46266055738232
H         6.48738192019492    6.29145869456176    5.40035354636036
C         4.73312985009207    5.44513703070219    4.43797886776076
C         4.89322129761480    5.97295768184193    3.11735008125211
H         5.64782249822091    6.71252357697527    2.88949549437870
C         4.07614350526384    5.42150963798965    2.19647838206035
H         4.14883522082161    5.63261553449080    1.14222935524648
C         3.18786853097844    4.43318793145115    2.72119394192301
C         2.21014624982156    3.70847368263709    2.17106027150087
H         1.82459819311963    2.85652615081148    2.73850680555465
C         1.47582822191787    3.83257993910787    0.85714224011011
H         0.40215737037360    3.87499241362349    1.09470179414717
C         1.81167567769728    5.05200340246031    0.00611757397523
H         2.84404105716501    4.98325151963895   -0.34057356531959
H         1.70289526533406    5.96717012876051    0.59317892645363
C         0.89657293060039    5.08949020946786   -1.21630651804853
H        -0.14499698037399    5.16487810373318   -0.89456385323606
H         1.12347499261181    5.97103564690855   -1.81875102729816
C         1.08403770337274    3.82688453107355   -2.05300144754762
H         2.10815485271293    3.79499507877454   -2.43219713131431
H         0.41109244694634    3.84586261129141   -2.91176399230600
C         0.81647353446051    2.58018877779262   -1.21479585914376
H         1.00069388013414    1.68429341039073   -1.81064488855243
H        -0.23268761854578    2.56658021586452   -0.90978053172909
C         1.70328464729174    2.56035188514514    0.02778296842041
H         1.48263663113150    1.67298927443288    0.62768470822646
H         2.75355795416450    2.51368331177177   -0.27002613028381
C         0.01725427419590    5.91408450333255    5.05530412839803
C        -0.86902709088737    6.51601955051022    5.94072391753014
H        -0.50306132454730    7.14889476504875    6.73602122909621
C        -2.22961164003736    6.29640488306102    5.80955455056706
H        -2.91265776656236    6.76294871994833    6.50362435185407
C        -2.71558909361447    5.48032020109116    4.80250557453487
H        -3.77715149028943    5.30801704290570    4.71054020980422
C        -1.83613736125434    4.87751420236720    3.91729658238620
H        -2.21084585507543    4.23437146086391    3.13427983482557
C        -0.47766010396447    5.09179664821599    4.04518262117795
H         0.21662649398136    4.61194132694004    3.36617480807668
C         1.98739827165757    6.98488446882273    6.75935547797840
C         2.05141015636401    6.18748547382610    7.89910358995328
H         2.04386158788119    5.11173110102531    7.78759423823913
C         2.08459329176306    6.76401453014729    9.15571229736135
H         2.11254235053703    6.14356092950983   10.04012802506521
C         2.05358880105365    8.14238331330339    9.28766918480337
H         2.07595045931214    8.59243315928634   10.26858892938355
C         1.97095123777128    8.94008848561381    8.15872691058591
H         1.91745760296961   10.01401201176379    8.25921811392563
C         1.93251084090965    8.36854680819327    6.89897050763186
H         1.84286786439380    8.99965878914182    6.02673307095981
C         2.10504696104635    7.48242123459658    3.94427546977993
C         1.25082945998997    7.69199694564297    2.86855281101228
H         0.35157424875680    7.10107578357342    2.76570261489755
C         1.53959352653311    8.66834003727336    1.93007886354957
H         0.86814734848658    8.82632862874830    1.09908581650472
C         2.68114598232192    9.44031531887998    2.05568248405043
H         2.90246035090193   10.20167065735581    1.32339249660755
C         3.53884199213138    9.23421609084785    3.12512876232510
H         4.42966078531763    9.83639020107033    3.22667482723833
C         3.25871449587469    8.25589898401527    4.05864059362464
H         3.93009137933663    8.08368089020895    4.88836803090032
C         5.47788590163397    2.46039049837393    2.99785126013168
C         5.27228558596592    2.10688609699755    1.66865033945607
H         4.38373485852495    1.55950710221793    1.38823398843078
C         6.20235486105466    2.45391282852217    0.70517019994200
H         6.03843910006789    2.17173050093208   -0.32433965069296
C         7.33947821608259    3.16211990705932    1.05575529034828
H         8.06418949856575    3.42870300222994    0.30148877761205
C         7.53908284368234    3.53671229103082    2.37476247560653
H         8.41811391341045    4.10073192314351    2.65045693002689
C         6.60847777391197    3.19895317585939    3.33887257386627
H         6.74065028372490    3.52083728007676    4.36191599152476
C         3.36317100458719    0.65930945978755    3.67301523166924
C         1.98980388552169    0.48706652139288    3.78689466667844
H         1.37847954063638    1.25588357759165    4.23775780849566
C         1.39829696183079   -0.68895242910168    3.35599310774190
H         0.32921113459864   -0.81327068473172    3.44431076712101
C         2.17388671361578   -1.70237504656366    2.82162529278698
H         1.71132125991593   -2.61677797323864    2.48249108165014
C         3.54971588561897   -1.54848229753599    2.73712255961119
H         4.15962880827148   -2.34574102955489    2.33933823820401
C         4.14482571431178   -0.37854565419503    3.16606705967221
H         5.21860693947861   -0.26272917937064    3.10963405618641
C         5.10262766898165    1.33609205433256    5.64376276560174
C         6.44305751140451    0.97380127018532    5.62578072903378
H         7.05941079323786    1.20258053988668    4.76817939796916
C         6.98960505792891    0.29938142127497    6.70612201807720
H         8.03245813842783    0.01777427947095    6.68723781611467
C         6.20484838452380   -0.02748108148589    7.79797212084449
H         6.63473353172339   -0.56366953689287    8.63023827013862
C         4.86124651567431    0.31409698272203    7.81123574666552
H         4.24265904891138    0.04474931973385    8.65438064833950
C         4.31281519522915    0.98973530809863    6.73940440645870
H         3.26153957894960    1.24711214544837    6.73113202622518
C         5.81719130932603    3.81029717251098    9.31562526790274
C         4.53774703802401    3.81288927389250    9.86883606761671
H         3.84501795275201    4.59672203559694    9.59602520828891
C         4.17774245355729    2.82448284770196   10.76453498237414
H         3.18580979945901    2.81772094675715   11.19006810136439
C         5.09410583910552    1.84588069991886   11.12022684535931
H         4.81379261044847    1.07910638007950   11.82607939541295
C         6.36980621614501    1.85390900286926   10.58022300070451
H         7.08429698905867    1.09919989046169   10.87061233776840
C         6.73652342847783    2.83059195172799    9.67072561066086
H         7.73029875501653    2.83676780990670    9.24657664278707
C         7.95280134237403    5.01058557224512    7.68108684838081
C         8.88709346135301    5.96201616993886    8.07210686821914
H         8.58375752058349    6.79960446910585    8.68466291383730
C        10.20390245587733    5.82453255027401    7.66691927855387
H        10.93587017470407    6.55859130945104    7.96692519375250
C        10.58193546051070    4.75015844391315    6.87741244822025
H        11.60973421742782    4.65075822196655    6.56396728569988
C         9.64618584908985    3.80309200881732    6.48619644202677
H         9.94402203459951    2.96885206123341    5.86942463615007
C         8.32961375766078    3.92965782263897    6.88510654030749
H         7.58412699532363    3.20088909300780    6.59211776749203
C         5.89817425044052    6.70473742783499    8.94509601219044
C         5.40766840242792    7.76930447213252    8.19650321966137
H         5.18943975509031    7.62860400337616    7.14765026752562
C         5.19397903889066    8.99097154474689    8.80797995299704
H         4.82213988821749    9.82227537690721    8.22939166591361
C         5.45576494272210    9.14614727160451   10.16008346695914
H         5.28561871585447   10.10018951302022   10.63482632249117
C         5.93367322818003    8.08060504370326   10.90788665880868
H         6.13272108497745    8.20458355670980   11.96137621672560
C         6.16044731924504    6.85753997030132   10.30433381824217
H         6.53750252972869    6.02089752438682   10.87720815034237

