73
CSD_code = QOWVII | q = 0 | S = 0 | Stoichiometry = C24H12Cl4F12N14O4S2Zn | MND = 6
Zn       -0.44774886885727    0.59437339203028    3.65579847506600
O        -1.64498502741822   -1.21779226227917    2.84715857703223
C         0.28523884625483    2.69584378749998    7.09877566942223
C         2.40519619388968    3.26552554971017    3.15687517016780
C         3.37157069959880    3.25796784618368    2.16255975167438
H         3.19782656696972    3.77848304973910    1.23386731497448
C         4.75912444802517    1.84104090975147    3.54985956590977
H         5.66490827211792    1.27260062997818    3.68842153954410
C         2.59879200468821    2.56842875905417    4.35300361754063
C         1.55082270479278    3.00285493735034    6.58183015992870
C         4.53699030204522    2.53691722083168    2.36960733325382
C         3.78474777730909    1.85399631719750    4.53398115439714
C        -0.37278038846029    2.00042861614542    6.07688090137902
N         1.57218812028428    2.52350484560017    5.31267026542107
N         0.39811416857991    1.92041066760647    5.00419054438101
C        -1.64836848773924    1.35531569079830    6.00327113711821
N        -1.89280778863869    0.57565865962271    4.93230825802399
N        -2.69984754019361    1.35404643674802    6.81267600849998
N        -3.11746800281149    0.10374657134977    5.11709422070388
N        -3.58076038921394    0.57183720390716    6.22475579829720
Cl        4.01501993864173    0.96472570209608    5.98848906149490
S        -0.26003338099827    3.00170004133575    8.76196261980194
Cl        0.95016151620390    4.13440750027778    2.93097988811258
F        -1.56431520152867    5.30713025991637    9.33568825763644
F        -0.24169596028711    5.45892484068189    7.63442898265988
F        -2.14520088527716    4.46375647977247    7.43610909018846
C        -1.11658212136622    4.66770820120772    8.26012416974296
N         2.53063746100938    3.71059789228903    7.16056609337486
O         0.94349239808135    3.45278071229773    9.45518149157394
F         6.17820556685957    1.32531494052076    1.16680040537227
F         5.20569209753082    2.93868999535810    0.12430697128169
C         5.62083719796039    2.52931899938789    1.31982250046721
F         6.62674475698230    3.35963671212216    1.67726538896269
H         3.46058254162007    3.68534269350037    6.78020352974654
H         2.41330896208580    3.86951199271361    8.15519909610751
H        -2.02665527817028   -1.20608476614862    1.96585211136840
H        -2.38496551715659   -1.20048759129237    3.47137026012043
O         0.74199269072657   -1.03704826867511    4.60579603991143
C        -1.27890685764627    2.67089233089237    0.16112089598949
C        -3.40810780635660    3.27390202176122    4.07782862594141
C        -4.37366407312486    3.27587079453943    5.07406731194910
H        -4.21312918655065    3.83678126428325    5.98137165659899
C        -5.71936371692410    1.75695025869669    3.75321527601890
H        -6.60600296363762    1.15307617556453    3.64359602857008
C        -3.58396875855649    2.51960878808841    2.91439616667146
C        -2.53648601104150    2.98493295900162    0.69414230652325
C        -5.51592717044185    2.51042266479540    4.90149415091844
C        -4.74528904424019    1.75942492284899    2.76991537752488
C        -0.62675195023377    1.93851172314265    1.16152869268807
N        -2.56295173597891    2.46490693822389    1.94656260683940
N        -1.39790839382316    1.83024152232015    2.23215954173054
C         0.65453695864690    1.30391254618264    1.22509000707502
N         0.92996906888827    0.54759749460983    2.30676605994105
N         1.69329872462156    1.30980304399871    0.40005789649419
N         2.16162257695616    0.09944117590829    2.11149859793307
N         2.59833778560143    0.55612589343996    0.98959428829979
Cl       -4.94439945833707    0.80239751993894    1.35318352413605
S        -0.74194959040388    3.02008266490983   -1.49677690644963
Cl       -1.97785623004909    4.19181901555944    4.26191287973920
F         0.49183908831237    5.36223438208272   -2.04608356342686
F        -0.75070041792926    5.43554777772544   -0.28077120849918
F         1.17553102994771    4.46527825138833   -0.20612205223597
C         0.10684963060196    4.68087101366190   -0.97224714878271
N        -3.51324590515737    3.71161701236087    0.13720583014813
O        -1.95465333460067    3.47612158579980   -2.17166103113800
F        -7.14281790270550    1.31039272980914    6.13528994057124
F        -6.18169195509134    2.95485287261270    7.13922640852316
C        -6.59653304020877    2.51519460253910    5.95515198607154
F        -7.61038622309454    3.32890658539081    5.58125669513927
H        -4.43203464514202    3.72526444546552    0.54275180688857
H        -3.40256966547442    3.90218893373211   -0.85209225941065
H         1.53219530389130   -1.05258229970585    4.04857991087875
H         0.29513547565721   -1.87640477839662    4.45765828087607

