43
CSD_code = QOWVUU | q = 0 | S = 0 | Stoichiometry = C18H20N2NiO2 | MND = 4
C         1.04257766701198    2.59809666545295    6.06127054137615
H         2.03603984718341    2.47622221555441    5.65901733345910
C         0.84817629686274    3.53106802911391    7.04470562160212
H         1.67503911295079    4.12511159306134    7.40309716679618
C        -0.42918578233334    3.71362909770082    7.58249245558092
H        -0.58374554098610    4.45085771069701    8.35730062038304
C        -1.47996330536617    2.96668593479840    7.13085239220256
H        -2.47274306600756    3.09726411654276    7.53493718675322
C        -1.32157015307760    1.98763271339711    6.11495792537861
C        -0.01058414239511    1.80385419788218    5.56884307963574
C         0.19369372133059    0.81857817476755    4.54494688908222
C         1.57439689204000    0.56842205993120    3.98775303860100
H         2.11079673898103    1.50636124232806    3.84642531199050
H         1.48308888060705    0.08894946316823    3.00945780762540
C         2.36051377016355   -0.35333539997103    4.92339302104506
H         3.34971034333726   -0.54757316007271    4.51513739855417
H         1.84192935585927   -1.30223726382826    5.04124656406250
H         2.47032104164558    0.09782636134356    5.90618985138925
N        -0.77928042949987    0.08669157144423    4.10031114056873
O        -2.36925048635377    1.33219735989228    5.75702660511850
Ni       -2.57527340191705   -0.00007067581809    4.50768716899534
H        -0.50302803097203   -0.58480274016737    3.37858518402474
C        -6.19326279501520   -2.59774303473336    2.95359660855052
H        -7.18668048636074   -2.47601857445566    3.35600104563757
C        -5.99901286421311   -3.53017182859819    1.96961756385680
H        -6.82594656123556   -4.12396120711235    1.61096867530490
C        -4.72172051946075   -3.71248206797331    1.43157954466449
H        -4.56728536097090   -4.44927026316248    0.65632785937389
C        -3.67085631454346   -2.96584596751034    1.88352606672518
H        -2.67813027919697   -3.09623444871976    1.47924791997592
C        -3.82909734536043   -1.98733312141858    2.89996481240958
C        -5.14002291284940   -1.80377325555352    3.44629875981992
C        -5.34418055447385   -0.81894072475271    4.47064455839125
C        -6.72470984826499   -0.56947483041469    5.02858301725290
H        -7.26081074831513   -1.50764332932847    5.16954741456299
H        -6.63309277428812   -0.09059581725740    6.00714327276222
C        -7.51144042247109    0.35268548515746    4.09386042818552
H        -8.50049515432964    0.54640592659621    4.50269862860566
H        -6.99315301164193    1.30179647128982    3.97637983527712
H        -7.62159085086047   -0.09786883677441    3.11082326170086
N        -4.37123432957108   -0.08696801274098    4.91519980266079
O        -2.78133472439444   -1.33219314971734    3.25819607236632
H        -4.64740147124750    0.58420131996158    5.63726054769073

