81
CSD_code = QOWXUW | q = 0 | S = 0 | Stoichiometry = C22H48N6PdS4 | MND = 4
Pd        4.37796376292783    1.96760425449409   17.93870322431598
S         2.20831613849560    2.53078388949825   18.54239487608755
S         4.57031568933040    2.47895545233020   20.19553702616576
S         4.18409317226079    1.45813971100931   15.68372750795170
S         6.53827485583423    1.37157911697757   17.33584638830741
N         2.10514532527962    2.62651709195778   21.20706500907111
N         4.80773489003933    3.03868224451611   24.46571843766425
N        -1.88571560409220    2.21664156691635   19.78907238268052
N         6.63027773220004    1.07258208417361   14.68293418254575
N        10.60441103115381    1.24794691506888   16.18562626765531
N         3.88628089064730    1.56822506300301   11.46880292883334
C         2.86519565840286    2.54891250833789   20.12005764831270
C         2.69592683354272    2.62162025751323   22.52776401579824
H         3.58836478471161    1.99143885877998   22.52540741668722
H         1.97312877382831    2.19842963381741   23.22704173815771
C         3.09597457005202    4.03067086211295   22.97045764721321
H         2.21646877079795    4.67748259721517   22.99590910070576
H         3.79288174930891    4.44459438882325   22.24227108447830
C         3.72716094733548    4.00348238316848   24.36210400330718
H         4.06344288217866    5.02392302498029   24.62345351536653
H         2.95999007545515    3.71031453948798   25.08500745667647
C         5.97180582905961    3.42390639659718   23.69227612869943
H         6.74510087495411    2.66912992202293   23.82239994501741
H         6.37830600517350    4.39974563865320   24.00177821901256
H         5.71920336874209    3.46559902973194   22.63583941193736
C         5.16349525449756    2.79994617624577   25.84857435102220
H         5.93304832053867    2.03079854895399   25.88788400580597
H         4.28911636722442    2.44104707035178   26.39044588755639
H         5.54408865379771    3.70128597422197   26.35525907177083
C         0.66279800541195    2.67328097180693   21.09936969368241
H         0.38318815175527    3.23699995448892   20.20660683015648
H         0.26978665383265    3.19194999616990   21.97518099612772
C         0.06075977030942    1.26978827508952   20.99953661407481
H         0.49770994065141    0.75894843036876   20.14173511940555
H         0.30849308996538    0.69276572214306   21.89301908714739
C        -1.45985683482946    1.33800906944942   20.86430192036632
H        -1.85457507950075    0.31318464494900   20.73543090249127
H        -1.87276874727007    1.73947775863445   21.79463536658179
C        -1.56389561151561    1.68588740856557   18.47874747808888
H        -1.92008127646417    2.38148953476586   17.72118445798405
H        -2.02672786184843    0.70295019578174   18.29787952466345
H        -0.48645300535659    1.59454427294372   18.36844625226743
C        -3.29831697375107    2.51718369362769   19.89010580207189
H        -3.50166544114488    2.98139436108194   20.85458500657963
H        -3.93507088823758    1.62352228574819   19.79021877989347
H        -3.56687363014662    3.22192053240446   19.10485763392716
C         5.88142990888106    1.28485907032471   15.76169782658637
C         8.06854940603614    0.95976503809806   14.80593561605662
H         8.44320894522157    0.40674310460063   13.94315038197416
H         8.30467458843651    0.39303149271284   15.71049403514652
C         8.76967340383567    2.31723808152877   14.89973355624331
H         8.60062112547609    2.89464417700285   13.98942149230824
H         8.35062971431254    2.87765811577163   15.73488556337613
C        10.27655488305876    2.13117067303588   15.08060086830315
H        10.67898712979478    1.67653591218380   14.17033214692340
H        10.74829066622956    3.12446431259532   15.19732660802529
C        11.98353578546445    0.81294810027894   16.11651073265356
H        12.15545736970587    0.30247946536301   15.16946065143013
H        12.17325757755831    0.11020835405051   16.92620094402270
H        12.70049573215547    1.64534427828385   16.20138840140538
C        10.31580931359799    1.84380352202187   17.47525128808963
H        10.58595331458674    1.13662797160792   18.25725793852076
H         9.25158513567865    2.04686419487921   17.56076306502769
H        10.87308844666668    2.77947475470766   17.64019429237302
C         6.02387956414279    1.05835269382523   13.36801525135158
H         5.06351012980398    0.53898592576324   13.42413833058123
H         6.67912242197334    0.50334401716430   12.69495100597522
C         5.77315682937666    2.46247582481445   12.81219734547827
H         5.15957983762856    3.02089051509767   13.51850101917290
H         6.71723830916561    2.99642489511996   12.69282928925324
C         5.08598511665368    2.38615857860261   11.44854156503898
H         4.87444322128278    3.41304446280189   11.09696419210223
H         5.78039019356265    1.92759023078881   10.73802430323048
C         2.80596098880255    2.18801654595012   12.21074517242257
H         1.93857016624349    1.53116789228503   12.18274487685024
H         2.51850434838242    3.16697837022219   11.79576518513492
H         3.09503430216194    2.31634878036774   13.25048451999765
C         3.46122281767458    1.23081128914736   10.12658986531942
H         4.26380888434964    0.70078566253908    9.61479256484683
H         3.18776347124937    2.11493374409362    9.52855292832844
H         2.59587908532340    0.57264764338851   10.18495683208228

