52
CSD_code = QOWYOS | q = 0 | S = 0 | Stoichiometry = C23H20MoN4O4 | MND = 6
Mo        0.17941859420305    0.20710487656003    8.30696767960725
C         0.95154807730119   -0.35124049405853    6.60023196768636
O         1.36838712889353   -0.75706032376265    5.61271925620858
C         0.69669418710673   -1.49990720009656    9.09225849371389
O         0.92861195415053   -2.52707754272129    9.54392853508069
C        -1.49887796692719   -0.66008922085774    7.82784300475117
O        -2.46579496906722   -1.22726847863005    7.59076865966988
C        -0.65242896148263    0.62058636737210   10.03019314898959
O        -1.18746863975250    0.72405381431368   11.03784553701484
N         2.00380472471866    2.53578534498938    9.16966164945590
C         1.98712291374016    1.22192291518308    8.82011344436640
N         3.27792100885827    0.83169171643733    8.79770526902461
C         4.11595031180835    1.87496431163434    9.12673480032991
C         5.49478518161616    1.97443946001626    9.23212326505521
H         6.13898123583313    1.12902278324661    9.04996943779247
C         6.01828364858385    3.20664812457684    9.57914853561839
H         7.08760679013550    3.31918049676191    9.67079389974984
C         5.19872655863430    4.30687571730117    9.81408639321885
H         5.64774136101695    5.25036392150396   10.08364533710041
C         3.82208577631904    4.21874458393029    9.70911787493396
H         3.19837623799141    5.08008549426823    9.89308450672997
C         3.29038171782898    2.98813828572214    9.36115348281947
C         3.74848566774831   -0.50679525058780    8.54865869522051
H         4.63372508696698   -0.45087725531698    7.90745083393154
H         2.96084984594807   -1.04743511950593    8.01907894697083
C         4.08264793514249   -1.22249974072153    9.85451322224453
H         4.42529887717721   -2.23155697827531    9.64482152747465
H         3.19638844132417   -1.28146903450759   10.48173450117925
H         4.86065970555932   -0.69257272691425   10.40004746038971
C         0.80152481250318    3.31153533081517    9.27964637913462
H         0.17488408676787    2.89521593067142   10.08549882592078
H         1.05806297533295    4.34636354094221    9.51926318927677
N         0.06797178947438    3.27559014127516    8.04689227079679
C        -0.33276308824425    2.10740078763847    7.47828478070163
N        -0.96659793083879    2.45224438370850    6.33883217768381
C        -0.97485906395771    3.82011954107105    6.17186755776966
C        -1.48459908645822    4.64167142123018    5.17816866172317
H        -2.00403160606998    4.24008342244464    4.32273328410705
C        -1.29876774037521    6.00451867449252    5.32297607599809
H        -1.68314329267896    6.67301626883841    4.56806294787775
C        -0.62733352898435    6.53612985725294    6.42018130212808
H        -0.50440235538917    7.60560124386925    6.49515927502712
C        -0.11314792309299    5.72495053641098    7.41597174533921
H         0.40643584964403    6.15038190947866    8.26081306334749
C        -0.29455479195978    4.35887363872676    7.27756996263734
C        -1.62793770270847    1.54574438585995    5.43560295858482
H        -1.22104794674891    0.54612578480180    5.60401231794572
H        -1.40387532527676    1.85205656201733    4.40900318542973
C        -3.13577621238891    1.53942294824062    5.67112060112107
H        -3.61294831598412    0.84421566591421    4.98662561068897
H        -3.55736590029378    2.53055006076730    5.51714192404682
H        -3.35024013366801    1.22432911566917    6.68947253639543

