55
CSD_code = QOXCIP | q = 0 | S = 0 | Stoichiometry = C18H32N4Ni | MND = 4
Ni        3.41546785228692    4.70587593848305    9.81752881900609
C         4.82653176772454    3.34149240472018    9.87412256056915
N         5.91931294414351    3.18561202478768   10.65960936186636
C         6.53965298794248    4.21775311870711   11.49697032596213
C         7.55756024639626    4.96487899679498   10.62749285993487
C         5.49145600661686    5.19623251691538   12.02643276638807
C         7.24947263990875    3.56275492439245   12.68839012212458
C         6.49695288840257    1.96145999107306   10.43350764263218
C         5.74575983338404    1.32973580601184    9.50722108667368
N         4.72583353136858    2.18513436973161    9.17591968554096
C         3.75387608910718    1.84762576076688    8.15991096724337
C         2.46298114555129    2.66726692103541    8.25143559795512
N         1.85499180413688    2.53716692301425    9.54632334659556
C         2.17798272171008    3.35345267878385   10.57332081337939
N         1.49182261604991    2.86785267023956   11.63288787444881
C         1.65481596398787    3.32940554245060   13.01029127506643
C         1.78909712885296    4.85059991197206   13.02391272589097
C         2.92731191490610    2.66719730466966   13.55412617505637
C         0.44995060777804    2.92694387716511   13.86398415305891
C         0.76451857041757    1.76320866713563   11.26222072391650
C         0.99285176020723    1.55541847418485    9.94581394499438
C         4.45495977318966    5.90479564551575    8.59304706979698
C         2.00189940036881    6.09243961264888    9.74724982919872
H         8.11990174240098    5.67110986419667   11.23223481309578
H         8.25611702377837    4.26774477813118   10.16719953937027
H         7.03785736963487    5.50998156893223    9.84477255623705
H         5.97652364514725    6.11468264558834   12.34484670787716
H         4.96306406793876    4.77371837250545   12.87673674158970
H         4.76303147629121    5.44885900390706   11.23529138180050
H         7.51088624036647    4.33275630533426   13.40963751931167
H         8.16812175665473    3.06243740670162   12.39117636676525
H         6.59645095653504    2.84275730841028   13.17864616183682
H         7.37875531040090    1.62116068564842   10.93284673925809
H         5.85184576352133    0.35941632607912    9.06575668913764
H         3.52369926445026    0.77935119329510    8.26220408594113
H         4.19433927243129    2.00963831946289    7.16776934363970
H         2.69874651103261    3.73985552059920    8.11270234446139
H         1.77100860087054    2.33267116731213    7.47399967454468
H         2.07315756947316    5.19318643973359   14.01517026875842
H         0.84440843203604    5.31324159861251   12.75030909653970
H         2.54031224278161    5.16999913099423   12.30428816890469
H         3.13690445639291    3.01235475318065   14.56313727225505
H         2.81546243147287    1.58378055730964   13.57306764989074
H         3.76736911838390    2.91477058726879   12.91025256370776
H         0.51921644545976    3.42284990781978   14.82880008666026
H         0.41805149451873    1.85436100850849   14.04315252310918
H        -0.47746118907616    3.23706531039392   13.38716873005190
H         0.14107580524413    1.21339983548933   11.93443399236697
H         0.60611249905169    0.81254492123059    9.27750504415851
H         4.66095134745805    6.89402499617428    9.01572938850622
H         5.42480250148092    5.47121331099353    8.31084662012019
H         3.91875707118139    6.07847843590339    7.65136973887256
H         2.25665698452911    6.89761363762014   10.44986997799014
H         1.02174447367038    5.70247912485662   10.05288731333433
H         1.84656912004736    6.57009189660798    8.77557117260598

