64
CSD_code = QOXKIY | q = 0 | S = 0 | Stoichiometry = C29H27N2NiOPS3 | MND = 4
Ni       -1.56111705973727    1.99987472558346   -2.44694237747777
S        -3.37979455833304    0.80223437557382   -3.13468536453263
S        -0.76992190172303   -0.05427545304850   -2.38037879346215
C        -2.30382977643839   -0.49966305825557   -2.99153878573555
N        -2.60008179065668   -1.75229349568155   -3.32848919539723
C        -1.65792620411501   -2.83834101617533   -3.14742943097400
C        -0.73049732387592   -3.02575946446576   -4.36630171249154
O         0.51725559533286   -2.40884109676704   -4.21894894374367
C        -3.90021956479310   -2.10796624995815   -3.87188558008149
C        -4.71785242569999   -2.85407868446339   -2.84885249826533
C        -5.00550609520076   -4.20236186513245   -3.00956638152970
C        -5.73129828749633   -4.88249780456789   -2.04636119571733
C        -6.16740570475060   -4.22119708459747   -0.91165179589164
C        -5.16006958876940   -2.19541368661893   -1.70761725134478
C        -5.88089101846584   -2.87628471578320   -0.74404849100110
P         0.33284500703810    3.00233021314112   -2.08679868776100
C         1.84332867415733    1.99311515460908   -2.19622276148833
C         2.09984314824885    1.11373193747148   -1.14621025399872
C         3.19326066362723    0.27190062911337   -1.19868727609387
C         4.03120870186689    0.29507751308156   -2.30309262602248
C         2.67895381010266    2.00732336551737   -3.30629065626292
C         0.51395246373899    4.21531653917712   -3.42752172488658
C        -0.06142625853049    3.84642918826341   -4.64231985072229
C         3.77366657528962    1.16139207063445   -3.35223976735571
C        -0.01184015356762    4.70155355183346   -5.72440701420923
C         0.60523620712894    5.93652541276392   -5.59255799135849
C         1.16736065885512    6.31027722269847   -4.38378096403884
C         1.12499336786179    5.45376334606329   -3.29652790387087
C         0.57795728726404    3.91673720059156   -0.54081574384644
C        -0.52238738608676    4.18117038834063    0.26638752003815
C        -0.36368212659117    4.90423183385526    1.43496228434196
C         0.89253229932820    5.35800664796166    1.80192322163007
C         1.99406220243071    5.08044765914518    1.00693294357960
C         1.84314002704635    4.35798752968892   -0.16211523343558
N        -2.43510230080117    3.60335200880223   -2.43371154998825
C        -2.43509740832230    4.77240900231133   -2.62276345672883
S        -2.53746641087835    6.33043763223143   -2.82377670865042
H        -2.23841619704043   -3.74469250494952   -2.96732801811887
H        -1.03963237184848   -2.64000631849943   -2.26673408118453
H        -0.51303379949277   -4.08733256258132   -4.50568376734397
H        -1.24450187516858   -2.65628472114091   -5.26779292110561
H         0.38970418265872   -1.48758073334643   -3.95080933609418
H        -3.74444939757466   -2.72448244818762   -4.76226841413326
H        -4.40778349480149   -1.18412282257143   -4.16159554418329
H        -4.66917456103176   -4.72189476292538   -3.89638403730021
H        -5.95369925062776   -5.93041544844103   -2.18270956934215
H        -6.73159936542878   -4.75226880506797   -0.15973866213920
H        -4.94168255875646   -1.14560999830456   -1.58102725792125
H        -6.22193915314551   -2.35606798306554    0.13835635664717
H         1.43164414022236    1.09934883693681   -0.29447058699047
H         3.39028482617892   -0.40837104726060   -0.38353127484210
H         4.88215419149700   -0.36784420059727   -2.34782766939998
H         2.47331110546892    2.67967822174232   -4.12756007702240
H        -0.57391157366552    2.88426823547041   -4.70891729233393
H         4.42468809365724    1.17550636070792   -4.21386970776250
H        -0.46595887268222    4.41874744316257   -6.66235460012846
H         0.63171196228032    6.61592586633677   -6.43131162933108
H         1.62925913250765    7.28092931907377   -4.28095391151105
H         1.54418864128465    5.75600858942784   -2.34796463707086
H        -1.49664582763042    3.81409570312856   -0.03381150433815
H        -1.21928896731306    5.11359611137351    2.05919916801101
H         1.01688419509069    5.92456563362093    2.71283760690070
H         2.97392559941000    5.42803801318652    1.30029502083846
H         2.70177785043635    4.12671455097971   -0.77811165326410

