55
CSD_code = QOXKAP | q = 1 | S = 0 | Stoichiometry = C18H32CuS4(1+) | MND = 4
Cu        8.38354341888603   -0.94710897810198    0.21154850188421
S         9.10774907147122    0.19785252117969   -1.64657292079220
S         6.81782030260888   -2.27210386081560   -1.00944707564240
S         9.68933965192629   -2.18815184477696    1.64019859214693
S         7.57024580238134    0.48994041341713    1.93577849328265
C         7.73265128783564   -0.31424688875694   -2.77711364860559
C         8.12769563030860    0.08273426590466   -4.19798202047416
C         7.07920735478312   -0.35936440300189   -5.21319676692457
C         6.88632322690986   -1.86753615636287   -5.12993356546132
C         6.45021494692214   -2.25226988888059   -3.72009412529675
C         7.47965323208730   -1.81431498843288   -2.68134225744903
C         7.44028189492161   -3.98816349916107   -0.83188727120436
C         8.79480689098700   -4.10872176238368   -0.14969855473713
C         8.75866079925046   -3.74159751881220    1.33751672453517
C         8.94216179991355   -1.57479606709361    3.22036715110116
C         9.84189604347840   -2.03127603869365    4.36694018635695
C         9.33880779677394   -1.51539057768877    5.71087200476524
C         9.26424535370920    0.00529357082426    5.68325655549880
C         8.33138616140248    0.45353755495756    4.56308704783969
C         8.80795452393050   -0.05657643946166    3.20542738194946
C         8.21973075280820    2.14582985145103    1.48871040546122
C         9.18993232165338    2.15505379751150    0.31692280905595
C         8.52402759893481    1.82289530212407   -1.02257848050144
H         6.84031244611798    0.22803161166675   -2.45335764490935
H         8.26288797840780    1.16441380223342   -4.24142428215383
H         9.08615216857277   -0.38344650788038   -4.43616255265402
H         6.13204683131112    0.14455127998326   -5.01095093669495
H         7.40470595025461   -0.07422459643924   -6.21329436712063
H         6.12799224545822   -2.19154986837248   -5.84223311915743
H         7.82127044069761   -2.37299176082099   -5.38012551920670
H         5.49685265771385   -1.77237809980288   -3.48888044043432
H         6.30294844204591   -3.33145971552911   -3.65318962330001
H         8.42200990064390   -2.35422722506295   -2.80663487804319
H         7.47008205747465   -4.41130314064000   -1.83448399364440
H         6.67033295850739   -4.50524326159942   -0.25977079214603
H         9.12647878294344   -5.14329802119764   -0.25773039671675
H         9.52850576344573   -3.48016852065887   -0.66408387308493
H         9.22510547475928   -4.51372628007384    1.94727865532063
H         7.73547183198012   -3.58088255478450    1.67774435084091
H         7.95052716831599   -2.02863646317143    3.29677382434265
H         9.88606025485992   -3.12131148213364    4.37334090314091
H        10.85208458983157   -1.65725331757033    4.18701877902237
H         8.35010798538894   -1.92863166449579    5.91980498869915
H        10.01488369261530   -1.84659993521374    6.49868556461566
H        10.26154369935407    0.42037560755541    5.52417746695363
H         8.89092601370439    0.38266624239796    6.63495601348016
H         8.26779710520335    1.54268488683028    4.54001062449469
H         7.32699296913592    0.06636605223463    4.74721862376619
H         9.76479339221462    0.39357198852486    2.92776975427889
H         7.33441403797949    2.74036058736213    1.26442874338206
H         8.68821367462332    2.54665935836783    2.38591128209308
H        10.00677633921631    1.45084436103430    0.50400889846500
H         9.63173042082861    3.15199962697980    0.26281421972956
H         7.44054254698271    1.76228255554788   -0.91815400814180
H         8.77301431552474    2.56180608978199   -1.78254543200799

