75
CSD_code = QOXLIZ | q = 1 | S = 0 | Stoichiometry = C22H26LaN6O20(1+) | MND = 10
La        3.88335097835342   -0.43949861377390    0.54672399368919
O         2.97979220055070    1.54296630773765    2.02261139717859
H         3.35013748366448    2.42636774405426    1.87556304678466
O         1.32852885215551   -0.41090551591151    0.88235478550468
O         2.82031154174194   -2.71632954810415    0.77190730169816
O         5.34388870892086   -2.49587833748685   -0.10358095903157
O         5.76389963341243   -0.06267383504207   -1.43475720890020
O         5.20673769512750    1.94667365812862    0.45454905983610
H         4.56930579796464    2.58022698225973    0.06091049156989
O         3.88789112822316   -1.01486097927854    2.80251391171455
O         6.00326727989066   -0.37781872327216    1.58259457794510
O         7.39878450929051    0.93483300128699    2.52367832788658
O         5.81075930023146    0.80731785273351    8.41353601774133
O         7.45427949215012    1.51347810238848    7.21500657724616
O         1.94778171182060   -1.56356884757229    4.36032296104021
O         2.37843276708430   -1.79590760295392    6.44714494562602
O         2.97381243969079    1.06888548959020   -0.87744846861662
O         3.17218977147155   -1.35092827677348   -1.60812175851077
O         3.87096207150436   -1.70040746338593   -3.59936079916812
O         2.48566837251716    1.32946554885010   -7.04951706016394
O         2.21639553843923    3.40902473482139   -6.55858533248374
O         1.99715060494910    4.73818642233836   -1.92793603409622
O         3.16417493967253    3.56710339843338   -0.55926934398605
N         2.65765378330958   -1.41248528195554    5.33931730801535
N         6.39291291970646    0.96095370971621    7.36928401945568
N         6.41124988344200    0.23884728840327    2.58774405884119
N         2.58831075255243    3.73488433972942   -1.63054830378103
N         3.36914741555682   -0.97372665941300   -2.77401174076675
N         2.41203027544399    2.25342880673426   -6.27812433113392
C         1.55817747916350    1.69595266288667    1.96803413187623
H         1.27303231271188    2.17823996046109    1.02608975281478
H         1.21276119945649    2.30483676025274    2.81174914202859
C         0.91457206691507    0.31899894656628    2.04151476018171
H         1.22947081472301   -0.20143049644970    2.95262511803191
H        -0.17691998684872    0.42919984780403    2.03964664980085
C         0.71501226532874   -1.68839867944777    0.76796355914338
H        -0.29684226491505   -1.67447285354433    1.18407936091476
H         0.67064143321607   -1.89905686984144   -0.30615387196624
C         1.56171424140606   -2.76715549539709    1.44132367577255
H         1.09678764464981   -3.75134770680298    1.30328690679038
H         1.68319326077197   -2.56027573300471    2.51104112705670
C         3.73146747645497   -3.74202140825851    1.13566862699647
H         3.21912410057108   -4.70921503343160    1.20680045635550
H         4.20687278156603   -3.50885729944987    2.09833864417075
C         4.76862752833699   -3.79240157877361    0.01965693345843
H         5.54652333142220   -4.53321681574216    0.24623759743299
H         4.27033747340270   -4.06238388584810   -0.92160858198735
C         6.19953074130868   -2.41300913638096   -1.23957569309104
H         5.62707637879295   -2.60481706717106   -2.15824935072136
H         7.00280786311184   -3.15710307453382   -1.15978001097417
C         6.81675194671553   -1.02218878532004   -1.29032390257590
H         7.37885615014470   -0.83572488703902   -0.36897332550512
H         7.48999869113213   -0.96118455707135   -2.15441407008699
C         6.24271782802898    1.26711858523278   -1.63719952229974
H         5.48705250644714    1.76949096398307   -2.25201066718795
H         7.18865585216845    1.25698717287044   -2.18750953948359
C         6.40662720352642    2.01808302582013   -0.30975592954142
H         7.19333672128778    1.56230294800589    0.29686370834253
H         6.68113338779198    3.05890833821542   -0.50779787784415
C         4.45994490691433   -0.58347738780978    3.83119654255100
C         5.74311226620913    0.08593355621095    3.80200253987402
C         6.35100710654677    0.59658857359539    4.94481406906638
H         7.30299887508391    1.10653009732364    4.86824127665665
C         5.75195735831050    0.43315919261990    6.17616475188193
C         4.53764141689839   -0.24487729855131    6.28516669342654
H         4.08732307493882   -0.38676998829563    7.26044231796063
C         3.90867884136296   -0.72590880398614    5.16138809984026
C         2.87696980761869    1.32653941571998   -2.09952201760198
C         3.00961119466363    0.33391871751144   -3.13822872181821
C         2.88033521499369    0.64533554733120   -4.48366227146137
H         2.99650446056797   -0.12606442057069   -5.23448612362276
C         2.58183560386221    1.94110659583910   -4.86765093526089
C         2.46700617878153    2.95553345121099   -3.91931823743530
H         2.25706759052227    3.96956750481261   -4.23721198616545
C         2.64869982522051    2.66807369613644   -2.58510524698576

