61
CSD_code = QOXNAU | q = 0 | S = 0 | Stoichiometry = C22H32Cl2N4Pd | MND = 4
Pd       12.19693209156429    2.79361113285671    0.10396007710426
Cl       12.08383229209993    4.89296117786247   -0.76148088005055
Cl       14.33856814908153    2.49835437731177   -0.58636525743148
N        10.39015854285667    3.08801705339972    0.82185319539195
N        12.32717731214263    1.00263893405721    1.06639485279153
N        10.60742606342478    1.10876243646551   -1.19404088142738
N        12.13593267783771    2.77985935155214    3.20568218916628
C        10.32553960834109    3.84100282803377    1.92464602506985
C         9.11856046859945    4.38330311239804    2.33884193526664
H         9.08041015053928    5.03933226015636    3.19380989922014
C         7.96231157670474    4.08412139813058    1.63466913309976
H         7.01358729024686    4.50196009230693    1.93422705294069
C         8.04489265229645    3.23034796060275    0.54986602654475
H         7.16186919251117    2.95479564486596   -0.00608789319552
C         9.29078698371681    2.75550065274239    0.15273319178214
C         9.38804981684163    1.89390638325367   -1.09151817944827
H         8.48191311714998    1.26493197359200   -1.13896438751301
H         9.35704542484023    2.58769090598522   -1.93544829408260
C        10.62542451400770   -0.04423956868929   -0.30677767634004
H        10.47843183360797   -0.99061915683191   -0.84174139875833
H         9.79800128601075    0.05426217806209    0.40848191109061
C        11.88447194244472   -0.13162661426319    0.53764576748357
C        12.48300449627720   -1.34327826986963    0.85475155408718
H        12.12606153448701   -2.26151056191336    0.41443080091258
C        13.55935957124100   -1.34714609280191    1.72851412137998
H        14.07777236622256   -2.26733343296350    1.95111924667079
C        13.93308545515421   -0.16414927562601    2.34597028821429
H        14.73300778833992   -0.14950005107092    3.06937730562736
C        13.26877637843320    1.00672607550746    2.00822466183658
C        13.44387022546375    2.32793302483365    2.73711027238693
H        14.15534848677399    2.20091645742557    3.55955390757713
H        13.87948750541008    3.06112961457227    2.03671885857708
C        11.61989174390953    4.04798826709041    2.69834368152433
H        12.35124556362866    4.50944681428592    2.01003018535276
H        11.43624204862347    4.76334376341628    3.50758113896993
C        11.08354154306732    0.85451521703911   -2.57239336998508
C        11.40758170039386    2.20083804783353   -3.23243089987733
H        11.96354964182453    2.82431265323659   -2.52181008297796
H        10.51993286662790    2.73711155879940   -3.56078580226828
H        12.03401853393122    2.04295651306441   -4.10586229325615
C        10.05213580573687    0.08439137012557   -3.41090844398113
H         9.13477337710752    0.65627644060599   -3.53087017061434
H         9.80463096363428   -0.87321921971729   -2.95634277525400
H        10.46063627352857   -0.10912370180760   -4.39885353136956
C        12.39726985636526    0.06980517197961   -2.50026636899192
H        12.26594785858079   -0.93884499325188   -2.11858018481051
H        13.10430714608582    0.60509004740385   -1.86581631929354
H        12.82811247445185   -0.00783411796011   -3.49493524409497
C        11.81568434253734    2.45724938798305    4.60027660207991
C        12.09461944204760    0.97074768736851    4.86135210207512
H        13.15507202801050    0.74264676190660    4.84957016181856
H        11.59806642088370    0.35948349200076    4.11168452236207
H        11.70978026726045    0.69522808778423    5.84018417524661
C        12.62427093612474    3.30874284579441    5.59567584784457
H        12.43743066465696    4.36907018683757    5.44366716522121
H        13.69152462180946    3.13354732474184    5.48592232340864
H        12.34250930943842    3.05672926862509    6.61438156946649
C        10.31846884133010    2.67490232256492    4.85363103883916
H         9.73172102947091    2.18735700119080    4.07930843181282
H        10.05881067140896    3.72764924607581    4.88135269265486
H        10.04552723285100    2.24493055303623    5.81413642212231

