49
CSD_code = QOXPAU | q = 0 | S = 0 | Stoichiometry = C26H18Cl2O2Zr | MND = 12
Zr        7.88636425323870    0.97828402898147   14.08799032800089
Cl        7.86113985173060   -0.63957724357278   15.77410166959775
Cl        8.87464185750491   -0.63569131421727   12.71589865905846
C         6.14688601318871    2.10163592780029   12.66726607083030
C         5.86382772097127    2.37656289865288   14.03773268115828
H         5.71703620823395    3.36614778895468   14.45126840560409
C         5.47032168438073    1.15121339920402   14.64868009369167
C         4.99449995742649    0.83503148147900   15.93804813831352
H         4.90176650363921    1.60968622159292   16.68831616395204
C         4.63628189542427   -0.46039808962352   16.20866478726927
H         4.26202856442792   -0.71874940080231   17.18751363903693
C         4.75161759083235   -1.47586968595462   15.24025689622098
H         4.46290791344486   -2.48091225622411   15.50785030103274
C         5.22422962629879   -1.21672720914014   13.97929359565731
H         5.30961395200162   -2.00172268764668   13.23925483509493
C         5.58303114585368    0.10559182048073   13.64899918768794
C         6.02897085192619    0.70772726959939   12.43651847700830
H         6.12353071635306    0.21208300952767   11.47845169519687
C         6.42416795570413    3.10652168044539   11.66330318942481
C         6.27113110155179    3.10591921461696   10.30022810924076
H         5.88279554519263    2.30725298234154    9.70232267927194
C         6.70406369481618    4.37507961892906    9.85080054583642
H         6.72359799701745    4.72747081094457    8.84023229888119
C         7.08873528721717    5.05741950225417   10.96187065710586
H         7.47919479131183    6.04616416539701   11.09820512114607
O         6.92207547424232    4.30423765049190   12.06484554064088
C         9.88119575519402    2.33578424980433   13.90563407438774
C         8.79668044309672    3.11100567535233   14.43474713655731
H         8.38620670429275    3.99833128103171   13.96569774536760
C         8.66356129200727    2.74334252812192   15.81090448860300
C         7.79949427457339    3.17922389094982   16.83411603984487
H         7.07086038378429    3.95685725831471   16.64059095596248
C         7.92141092943525    2.62636305572307   18.08511405855521
H         7.26512360014621    2.94920056121051   18.87992046246410
C         8.89615188462099    1.65448635822258   18.36432749157720
H         8.96066459300931    1.25539285232484   19.36493464939792
C         9.76057847145821    1.21032029513814   17.39560627181138
H        10.50656924800648    0.46081826240007   17.61603838400651
C         9.65627377609562    1.73652403499471   16.09770655901483
C        10.36627636449026    1.46278221250411   14.89825449261648
H        11.18385351874779    0.76379177847225   14.78093271694215
C        10.16127626374998    2.27379442760201   12.47626662393938
C        11.26433340537184    2.26027665933939   11.67551146130644
H        12.28231181109778    2.37474104218181   11.98684052743693
C        10.79184382478590    2.07707373495705   10.34975086720985
H        11.38973737615241    2.01832050893843    9.46391707192633
C         9.44090714900560    1.98298455273527   10.43515978833208
H         8.68327270112463    1.84187096514852    9.69037111827728
O         9.03265807581888    2.10503223004920   11.71824324851523

