93
CSD_code = QOXROL | q = 0 | S = 0 | Stoichiometry = C37H50N2O3Zn | MND = 5
Zn       17.97720361279379   21.70692925151419    6.57030369613191
O        19.33935172727096   22.93970642113000    6.20393048087797
N        19.14463483988628   20.20075130602627    5.98298298917898
C        20.49279742852661   22.81459279615451    5.65202107622368
O        17.05313220404724   22.10689486694423    4.60256279146308
H        17.30999644033980   23.03364168777316    4.51180328081823
C        15.65109003012777   22.01077094144006    4.41326912560886
H        15.39226042252493   20.95680681606711    4.49310824066665
H        15.37536319356836   22.37612740189142    3.42000287953125
H        15.10389149668829   22.56885025903440    5.17620108426520
O        16.78239473938105   22.94753568861564    7.35578747386653
N        16.89805882019724   20.21569906028903    7.34981644665301
C        21.28941765172080   23.97352060553560    5.36001661376680
C        22.51832365013815   23.80648450976330    4.77706099187774
H        23.10725794788227   24.67935686777734    4.55274428497956
C        23.07574559796202   22.55334985941285    4.45286419899298
C        22.32958781815921   21.44542276297916    4.73826852256179
H        22.69577765107567   20.45438865084179    4.51881163103629
C        21.04283933449034   21.53848579789760    5.31563801300187
C        20.35736975562377   20.32369901134582    5.53632545321207
H        20.93212406887647   19.42323192376239    5.30211874910654
C        20.76476523606621   25.35516768321143    5.73568997920241
C        19.38523995449059   25.58923847060768    5.10382312453369
H        18.66149675112609   24.89943360983848    5.52377207992429
H        19.43488792881475   25.44645501584353    4.02540653877242
H        19.05157301378953   26.60520839065730    5.30494380332135
C        20.65446469671286   25.42176066190139    7.26468621305660
H        20.00170539788626   24.63456861935949    7.62737266469461
H        20.24785776089280   26.38238444099655    7.57310738124203
H        21.63598301769000   25.29655222878606    7.71823815524196
C        21.68555643816527   26.49021552920880    5.27365541288490
H        21.24472382481501   27.44366113585467    5.55841997552082
H        21.80521777155139   26.48552467620176    4.19211663486913
H        22.66389958364285   26.42615289669552    5.74453389838386
C        24.45729466144519   22.50374280598258    3.81915986343542
C        24.91550282955532   21.07167372237001    3.53015223415039
H        24.97695771692855   20.48945868265654    4.44662124930947
H        25.90462322971020   21.09066757243625    3.07668068643414
H        24.23765993884929   20.57749200106939    2.83799650777453
C        24.43240249308584   23.27392330590734    2.49143207336880
H        25.40928179444622   23.23079793870675    2.01389941128686
H        24.17462173834735   24.31840588432039    2.64268458781051
H        23.69853500032016   22.83615629112883    1.81785571047044
C        25.47294336668002   23.14612465359650    4.77435973052404
H        25.47785746676320   22.61861002825252    5.72588804500166
H        25.23427614952299   24.18861461910515    4.96519826562665
H        26.47270285799065   23.09896311450349    4.34723096418658
C        18.50180424214914   18.98361728655674    6.10312391436313
C        18.91519937334363   17.79373413004400    5.50338311543876
H        19.80849280473483   17.77390528028948    4.89809455860890
C        18.17986305870366   16.63419516265826    5.64812274408753
H        18.51801617123932   15.72300517043891    5.17784613524980
C        16.99944327873673   16.64456797247686    6.37473553082394
H        16.41422960813286   15.74235852610083    6.47120889297907
C        16.55692993448596   17.81507018806328    6.95785337786577
H        15.61240086359586   17.81882481330235    7.48082102060568
C        17.29749309801951   18.99231060625597    6.84836165199740
C        16.00870068366233   20.33958274831081    8.28899089237183
H        15.62837069626333   19.43900958951411    8.78047148301887
C        15.46340980865113   21.55429335882576    8.75700975480412
C        14.46978602101969   21.46543230022237    9.75841183525582
H        14.21188430936308   20.47607322962329   10.10360765462850
C        13.85161867264791   22.57415211506946   10.26197626627013
C        14.25200933231657   23.82483176462552    9.74875627687769
H        13.76228129454004   24.69798209780918   10.14491508010958
C        15.21788680886101   23.99034795472755    8.79144195787458
C        15.87425852891841   22.82977086924936    8.25493006021406
C        12.76989954102339   22.52920664823827   11.32984154125267
C        12.45133723664509   21.10021875341431   11.77794577069112
H        12.08880151222884   20.50183347669230   10.94529151889873
H        11.67437716008981   21.12227337169002   12.53965999012740
H        13.32869124498898   20.62133394417559   12.20629544687864
C        13.23997919278537   23.32082200534798   12.55809303155971
H        14.16305451432982   22.89594132828936   12.94675477331318
H        12.48506298998331   23.28328081087847   13.34094932077376
H        13.42286226493798   24.36318517263848   12.31271197379387
C        11.48270149664776   23.15201110193317   10.77110280292561
H        11.63113766682408   24.19290367259778   10.49771831537266
H        10.68961264690174   23.10602160700302   11.51474904744212
H        11.15773923265578   22.61024414057145    9.88516622791403
C        15.61789275268463   25.37315666766286    8.28916480793395
C        14.81735420437898   26.50413384957457    8.94385679203234
H        15.15396952970880   27.45687799928542    8.53947053261132
H        14.97291395885279   26.52722570800321   10.02016954605910
H        13.75349691417840   26.41046139719487    8.73524338524404
C        15.38661032778262   25.45046666832464    6.77367940614490
H        16.00563293736755   24.71705131355554    6.26853583012808
H        15.64871706205237   26.43980103082887    6.40431526507158
H        14.34089629983213   25.25687261679174    6.53919701040309
C        17.10282178356463   25.60218084885560    8.59723622460895
H        17.70752952306653   24.84333504947815    8.11307202388719
H        17.27661850901932   25.55601393095234    9.67057934529332
H        17.41426185747880   26.57998125649517    8.23597465128080

