69
CSD_code = QOXTON | q = 0 | S = 0 | Stoichiometry = C28H28N6NiO4S2 | MND = 6
Ni        6.61664753542075    0.00232374628609    7.42499916810422
N         6.23488996389349    0.93758337784086    9.04213827787791
C         5.90705848815712    0.28627167943154   10.15040550105547
H         5.66239606630586   -0.76379911877166   10.06346433720546
C         5.86136194983901    0.90095896964128   11.40556738059162
C         6.19233609054954    2.25723243455082   11.48588324485246
H         6.22220277327250    2.75394114067792   12.44469403954434
C         6.50164155600648    2.92807703742243   10.31899744715025
H         6.74857234726164    3.97816057504099   10.33816096622300
C         6.50481143369786    2.24132984085583    9.11621757484351
H         6.72957932655587    2.74202347662707    8.18496826829003
N         5.59172254815960    0.11426137981640   12.49846418663452
C         4.90142488598723    0.50048118726397   13.50378140438665
H         4.38664652820828    1.46937823949959   13.51130387266379
C         4.71468183843645   -0.32018212925973   14.66651866851574
C         5.30786956435530   -1.59995215024045   14.77152453773842
C         5.08892631117010   -2.35367844029135   15.92873234779302
H         5.54964890801498   -3.32683532219727   15.99075254100773
C         4.31225461592434   -1.86150170217622   16.95298174148184
H         4.15712679752195   -2.45757774187174   17.83964261877255
C         3.72505687600720   -0.60205580782028   16.85528359414238
H         3.11703955221404   -0.22400115548435   17.66237383428610
C         3.92558377687787    0.15293249589883   15.72488849311291
H         3.47474064914960    1.13140429743058   15.63678827015006
O         6.06469511685237   -2.12249387837495   13.81070917876473
H         6.13834133161068   -1.47844757653692   13.06821778449888
N         5.44551360831325    1.11848024638408    6.50460543071349
C         4.82267713280837    1.19606650016917    5.50495965866953
S         3.94660919585219    1.37622504695257    4.19976164096570
O         8.79984249946273    1.22556459409211    6.99974593895227
C         9.56555655450641    1.93640183750746    7.95333869930215
H        10.60530537887695    2.02505293410747    7.62358389035786
H         9.54155001212035    1.45121892592587    8.93366003298068
H         9.13869750070299    2.93412898698981    8.03643989705017
H         9.22628917831803    0.36694546252161    6.87698773090191
N         6.99746227320232   -0.93493941921109    5.80864340443301
C         7.32502734489900   -0.28584744335676    4.69903906865461
H         7.56982239518128    0.76434959959543    4.78378601165691
C         7.37023206299387   -0.90292059207691    3.44503048554667
C         7.03936544642057   -2.25934835881341    3.36738252808820
H         7.00942997861345   -2.75790001973791    2.40952793485386
C         6.73038780582845   -2.92791925219358    4.53568041462517
H         6.48363115351524   -3.97808457733637    4.51864972714129
C         6.72745635956122   -2.23884629384454    5.73713317097558
H         6.50271044058156   -2.73777990677721    6.66934956777018
N         7.63957604987314   -0.11819993639859    2.35068596994128
C         8.33194720294525   -0.50509544628544    1.34711410902970
H         8.84828854121880   -1.47319089639903    1.34214425114513
C         8.51946775431037    0.31400636054416    0.18340119866657
C         7.92393286177157    1.59239588894171    0.07499303584887
C         8.14451057709162    2.34491804414220   -1.08270807296040
H         7.68196289760532    3.31703820357284   -1.14734834325585
C         8.92513276149918    1.85297866404480   -2.10405485761785
H         9.08161732081694    2.44820275151034   -2.99104598161893
C         9.51460727658711    0.59485702062135   -2.00299778671173
H        10.12576553250735    0.21698466597685   -2.80779882257878
C         9.31237018866432   -0.15900881835206   -0.87216441096294
H         9.76499405011156   -1.13641117903347   -0.78139600520371
O         7.16342952573310    2.11489227239107    1.03289065613529
H         7.08938615960196    1.47234524488759    1.77658488509526
N         7.78980981534547   -1.11184660300933    8.34521465752723
C         8.41936439687913   -1.18563320794188    9.34096928303370
S         9.30351065914058   -1.36181134995699   10.64133057780258
O         4.43052480592779   -1.21879021875830    7.84467797109838
C         3.66565424996200   -1.92468057640339    6.88676728954050
H         2.62429338072661   -2.00983126777629    7.21222568499913
H         3.69540287035507   -1.43766721613492    5.90760815542239
H         4.08887911532605   -2.92384024328268    6.80332459170897
H         4.00634885279552   -0.35919528304529    7.96831745055877

