76
CSD_code = QOXXAD | q = 0 | S = 0 | Stoichiometry = C33H36N3PPdS2 | MND = 4
Pd        3.68234418464612    4.40128151344233   13.67069964511404
C         3.66375418559404    4.39389272181767   16.58943585549791
C         3.96439085027516    3.95951097530121   17.87972912039594
H         3.54744240981927    4.51365251893490   18.70402519785354
C         4.77362323050861    2.85144060921723   18.04819203530684
H         5.02011889089119    2.49704043531999   19.03776229749258
C         5.26267443328059    2.20387181617793   16.92835975859024
H         5.89800332127593    1.33564835728514   16.98416809268729
C         4.92727016778666    2.68251994658638   15.66305056612754
C         5.44023425943140    2.00058714469840   14.46499387585238
C         6.76662132301355    0.30336780358548   13.52333799493172
H         7.02799898987373    0.99340901834087   12.70834767131169
H         5.99827546830334   -0.37269874573669   13.12440251340671
C         7.97998993396557   -0.50664333754971   13.97398723352179
H         7.65851269411937   -1.18632035186643   14.76532203913587
H         8.34041212338103   -1.10405378309284   13.13397700819683
C         9.10840227402194    0.37611709201398   14.50750888297000
H         8.69157393402825    1.04975407859430   15.25868603075497
H         9.85018284256987   -0.25890222415931   14.99806115301256
C         9.79591624106645    1.18973673564177   13.41767799544592
H        10.18681413441309    0.53482903685350   12.64113361534480
H        10.62385016824380    1.75851973134965   13.83574162588342
H         9.10225127274028    1.89014740279314   12.95982110972894
C         2.80843870537602    5.57291308498240   16.39618740569738
C         1.51523822718761    7.30399278304204   17.30608073604706
H         0.60897292309145    7.04644986983507   16.73837947384293
H         2.03247903474016    8.08003262629975   16.72250438276278
C         1.14662043529392    7.83202384630595   18.68820759721331
H         2.06520294803376    8.07236746983312   19.22681131827481
H         0.63563334023656    7.04122777533766   19.24048804537838
C         0.25577846246968    9.06725723377129   18.60641725257472
H         0.77066608778523    9.84555557772681   18.03798993502750
H        -0.66000308271617    8.81622585922253   18.06575374901077
C        -0.10038465036558    9.60038590336611   19.98866424930801
H        -0.63026769167106    8.84411130355671   20.56371735463529
H        -0.73579381349119   10.47967143152511   19.90941672613438
H         0.79978418111477    9.87514851056674   20.53422714850824
C         1.33398459291527    5.38389463194811   11.67245821953027
C         0.65176578164023    4.42713481937362   12.42669677229892
H         1.22823022103971    3.63534091190868   12.92709113127228
C        -0.72173509055970    4.49365301746166   12.55091422416277
H        -1.25198104171410    3.75577600485559   13.13467453577400
C        -1.41730107436062    5.52405444513565   11.93470838820103
H        -2.49045027171530    5.58509344741160   12.03906309412517
C        -0.74020208056270    6.48270287883194   11.20025595831581
H        -1.28606976940537    7.29072741559203   10.73564854342653
C         0.63694193640637    6.41725211867304   11.06401434677584
H         1.16616890318931    7.17506553633285   10.50543758432887
C         3.43146332407173    4.16604016628140   10.13959185688879
C         2.40993816378990    3.62669882235840    9.36805631831611
H         1.37773991068897    3.79146791448139    9.64498638778158
C         2.72212560849571    2.87823396287527    8.24602178659859
H         1.92874479678684    2.45956614169583    7.64415703719019
C         4.04455101983800    2.66148765425322    7.89775203696239
H         4.28177648723443    2.07277546480477    7.02397191158396
C         5.06516789168869    3.19235846152874    8.67224326662163
H         6.09606381811322    3.01526032987430    8.40404921584417
C         4.76136702284743    3.94189615272798    9.79121550392094
H         5.54532760982594    4.35238452830450   10.41563554404937
C         3.98077064827900    6.69463731189480   11.27721544807764
C         3.84529187728683    7.36923170433638   10.06798574669660
H         3.20711723563406    6.96446683628256    9.29434261965450
C         4.54661745191989    8.54259766780169    9.85802991321556
H         4.43899274494803    9.07394593641046    8.92373777263920
C         5.39291332026984    9.03380576112584   10.84002028411358
H         5.93675155212686    9.95116453500540   10.66983494142974
C         5.55554076346236    8.34588113823093   12.03216773277673
H         6.23020539906555    8.72316572111991   12.78614672390909
C         4.85333268476307    7.17483529149928   12.25101050484448
H         4.97521596804474    6.60816465465265   13.18443593283240
N         4.14270628968885    3.75805869811792   15.51276012554455
N         2.35004313187545    6.15054089089440   17.43260966849997
N         6.21989940362409    1.01245506310676   14.63660979312544
P         3.13225139581297    5.13517456856333   11.64630060507956
S         4.92272315095686    2.60557325227115   12.89906002422052
S         2.49028678165099    6.09086437112419   14.75252180645867

