87
CSD_code = QOXXOS | q = 0 | S = 0 | Stoichiometry = C43H38ClN3ORu | MND = 9
Ru        3.55366049093888    9.52999205519752    2.70009475640509
Cl        3.42579072910081   11.17611517150343    1.03406562766749
O         5.62048680418140    9.71377436844043    2.37386238084368
N         7.28029078826435   10.01007004665904    0.76742248399162
N         7.52273126918427    9.61943271140324   -0.51541994633578
N         3.47595973522860    8.18069256202767    1.15829135286087
C         6.07791762125560    9.53365879738164    1.20473064461505
C         8.20275340214150   10.82739385001291    1.42399304517635
C         7.95505736741969   11.33658656833735    2.69475843794097
H         7.02792248066583   11.10443302145868    3.19241633894122
C         8.89633480453036   12.14631093551314    3.30318627171562
H         8.69804029587347   12.54305581337674    4.28855328471933
C        10.08451636359828   12.45216519548231    2.66189429419365
H        10.81518955851588   13.08394437596492    3.14490258817809
C        10.32830497476573   11.94511905882506    1.39562306453337
H        11.25148245151084   12.18202299775180    0.88732423429937
C         9.39649629488751   11.13703746348721    0.77518837743702
H         9.56488694481467   10.73827759743888   -0.21174646708904
C         6.52275296473683    8.88138342978972   -0.90769704731149
C         6.48064603501560    8.34629442943933   -2.29353650666281
H         7.25207094760184    8.83780102486913   -2.87972079837953
H         5.50619061472347    8.52991553716980   -2.74091131810986
H         6.66032480883628    7.27231929281551   -2.30202093434483
C         5.55273060492316    8.75138801106110    0.13461325117451
C         4.35595459458068    8.01100924531908    0.20443298434692
C         4.08966356108638    6.98111993451467   -0.82909753471908
C         2.99621096004115    7.10952173201517   -1.67794401044833
H         2.36865167695551    7.98547395097296   -1.60910373723509
C         2.72776878464077    6.13278742517958   -2.61558966471932
H         1.88884607317314    6.25262009995525   -3.28496504039302
C         3.53814525248537    5.00464459286548   -2.72341785352134
C         4.63300531069626    4.88515639384437   -1.87034285577785
H         5.26087627008994    4.00801315914254   -1.92885783281289
C         4.90790545382280    5.86246924252426   -0.93445840539550
H         5.75366936153527    5.75728220348307   -0.26980239575930
C         3.24378872572341    3.96192228386034   -3.71696683272159
C         4.26815013569168    3.37464912384482   -4.45576716308631
H         5.28661860635941    3.70386041666150   -4.30891175816048
C         3.98829265326569    2.39732609144427   -5.39257798182486
H         4.79168160203997    1.95516211500891   -5.96369534808915
C         2.68238494756052    1.98676441208330   -5.60188057422297
H         2.46477033260165    1.22201231322868   -6.33269138761559
C         1.65665239259134    2.56182847409228   -4.87032410463719
H         0.63649863486676    2.24268687065121   -5.02743897369364
C         1.93355325490829    3.54355933637108   -3.93736404024260
H         1.13232049100604    3.97834186061514   -3.35729776543212
C         2.40844366088312    7.27152226790458    1.27246879132530
C         1.07253894846782    7.68587362972143    1.00434521840166
C         0.76590269618255    8.98910444712084    0.55897603961143
H         1.56769146666569    9.70223816182220    0.41945526155420
C        -0.53046261867902    9.34953645744996    0.31246257367889
H        -0.75589602450929   10.34877074732586   -0.02877484453184
C        -1.57404959479716    8.42987763175775    0.49735505551822
H        -2.59229487465822    8.73352346482148    0.30145015992099
C        -1.30364016814590    7.15763844277036    0.91771928663322
H        -2.10176237410339    6.44191459644469    1.05634499019600
C         0.02132829967902    6.74694344314400    1.17632205967169
C         0.32240176780479    5.43241639600346    1.59053311689710
H        -0.48717610951825    4.72791054985447    1.71505576423245
C         1.61613173866944    5.05492008002560    1.81746043805274
H         1.84707093084483    4.04466914325906    2.12217297249796
C         2.66055801911332    5.97205965418968    1.65531856391597
H         3.68067194153127    5.66394130463538    1.83559269073595
C         1.74070026210990   10.42719227320310    3.81605393770781
C         1.58172145363959    9.03448011941782    3.85725540379841
H         0.63837966073414    8.58977629262952    3.56045608643265
C         2.62480154979435    8.19915742233864    4.33842939397253
H         2.45071852422481    7.13008979795395    4.38628309579861
C         3.81698918784720    8.74155672492982    4.84024551503292
C         3.95171430471317   10.16000243365340    4.84094888713325
H         4.84074242662653   10.60302239979191    5.27844069717167
C         2.94632748787291   10.98566583348956    4.33815453519387
H         3.05237839596319   12.06430820369124    4.38189648346182
C         0.66473824676667   11.33271042343844    3.30164945303346
H        -0.22010826819525   10.76734522735706    3.01859910319555
H         1.03415396159179   11.86421570916908    2.42268902002244
H         0.39550772192420   12.07149374429939    4.05607833414615
C         4.90801628328343    7.86871983877768    5.41278001483218
H         5.75791022066402    8.51189383744604    5.66722005512157
C         4.42712653347847    7.17486058754644    6.69030517226206
H         4.10302937573108    7.90843377050407    7.42582847226021
H         5.23489696680460    6.58818046664114    7.12107512967172
H         3.59366746320099    6.50855665455882    6.47863628078107
C         5.38361580348250    6.84952514895095    4.37506992451455
H         4.61085117537610    6.11080884893069    4.17391553811314
H         6.26971072283119    6.33124107793564    4.73425612470857
H         5.63220540555240    7.36260715199944    3.44507006323263

