74
CSD_code = QOXYAD | q = 1 | S = 0 | Stoichiometry = C34H36IrNOP(1+) | MND = 6
Ir        0.65946039619867    2.98017362520171    1.52964810027293
P         2.18162103852842    4.79465931598919    1.84084700453343
C         3.47163001405922    4.29336381095280    3.03431555965676
C         3.55302308972740    2.95240740326215    3.39611951625693
H         2.84493098805194    2.25030113297081    2.97350797682344
C         4.51455138679706    2.52457842292139    4.29283942593957
H         4.57160695740135    1.48231274697138    4.56886814362045
C         5.40132731103699    3.43733800535134    4.84036230449512
H         6.15036069287806    3.10772085303733    5.54348439067283
C         5.32223400489445    4.77567361327056    4.48883846511084
H         6.01041301214051    5.48797584943203    4.91758251773054
C         4.36239935937865    5.20680507336424    3.59099151423852
H         4.30589165475766    6.25190457180332    3.32323066994611
C         1.83685506342474    6.49311833910329    2.43716773579259
C         0.91854822931635    6.69788764671433    3.46195231303019
H         0.38620622247156    5.86067905763260    3.88615014268535
C         0.68981111837217    7.97010870308520    3.95492454314638
H        -0.02591320431440    8.11515553513640    4.74956384292520
C         1.37936896204015    9.05224198387346    3.43435337496766
H         1.20046959588377   10.04442747475450    3.81808840720013
C         2.30594836901833    8.85507409910997    2.42412478081118
H         2.85569575811112    9.69266824793159    2.02175696766282
C         2.53620973095301    7.58477977464701    1.92647926032128
H         3.26804003513940    7.44237000085743    1.14366704315669
C         3.14571389907797    5.13023337983482    0.31778556513071
C         2.51299713499680    5.65297563254668   -0.81650820519968
C         3.23944677703879    5.80656165620948   -1.98971537901370
H         2.73907773933407    6.19170731763275   -2.86496479854546
C         4.57504847073265    5.45329514829349   -2.05310883598474
H         5.12448861927243    5.58295374567233   -2.97246543091183
C         5.20039586435731    4.93233059299464   -0.93350166009111
H         6.24165176864512    4.65164676061165   -0.97156598259260
C         4.48707303944423    4.76413058063360    0.23920701992730
H         4.97911731495426    4.34504027773172    1.10479179189958
C         1.04547218677804    6.02559238709804   -0.81896997973892
H         0.61695009543815    5.80071256470155    0.17787026613142
C         0.82762096945614    7.50510382197012   -1.12071201383539
H        -0.23761267212869    7.71759062093478   -1.12546286082440
H         1.23138131483681    7.75449498068994   -2.09671427776914
H         1.31083325780643    8.11605876565629   -0.36408863211438
O         0.32749338557272    5.28634477427501   -1.79480232351322
C         0.05080425191482    3.96119109537139   -1.43236827309606
H        -0.64434703118043    3.59230720571299   -2.19204755193385
H        -0.44279055092704    3.93407685190767   -0.44435906091122
C         1.28322063718107    3.08476393260458   -1.40303511292738
C         1.97435761174299    2.84587485390960   -2.58321219816714
H         1.60040219399512    3.27238569839262   -3.50011868146163
C         3.12844780420717    2.08483022416243   -2.55986141190753
H         3.68212397351504    1.89216890781292   -3.46463478044619
C         3.55146117585210    1.57398950111302   -1.34100669309005
H         4.44291067839837    0.97357416213804   -1.26496883907139
C         2.80916480896182    1.84894009638662   -0.21138156830283
H         3.12288359658348    1.46898527308978    0.75060352654551
N         1.69556928199865    2.59023150176109   -0.22766796051149
C         0.08705794350573    3.02817669609195    3.60537138485880
H         0.70942379888107    3.72128760326780    4.17203794726524
C        -0.95349095305357    3.55440216123785    2.83206619875779
H        -1.05786155890390    4.63833119248633    2.79270622912071
C        -2.24652832243014    2.80544710305817    2.57902162640437
H        -3.06369204469330    3.52363002918341    2.50996336315853
H        -2.45391106526463    2.16325139798247    3.43468033539066
C        -2.20911188429080    1.97682640160447    1.28116721009724
H        -2.86554766491217    1.10676676315897    1.37490800736863
H        -2.59699940706634    2.57969881382233    0.45833268333921
C        -0.82322744897166    1.51033123510558    0.91145780184243
H        -0.70448777791905    1.30601457228051   -0.15130537933613
C         0.05819099072737    0.88987861710292    1.78575856477750
H         0.84398879007326    0.27869761279631    1.34719173164346
C        -0.29509315455613    0.53613522261896    3.21227354199439
H         0.23235413355269   -0.37656821481540    3.49036439825312
H        -1.36207978893674    0.31947260068221    3.26322221648860
C         0.07474782716605    1.64566389678256    4.21514789939115
H        -0.62195853065915    1.63528749322221    5.05815892187442
H         1.06727873363484    1.44875120309373    4.62289565864370

