66
CSD_code = QOXYEH | q = 1 | S = 0 | Stoichiometry = C30H30IrN3OP(1+) | MND = 6
Ir        3.34891929016217   -4.55970163769074    0.93672996571582
H         2.40351974003622   -5.37098925205362    1.82674586696243
P         1.77378513906962   -2.93767541192648    0.58507486827455
C        -0.03317741006430   -3.14145544592806    0.62476147002128
C        -0.56157487065202   -4.16204638063984    1.40913203088193
H         0.11524014791541   -4.83179577909937    1.92118164654109
C        -1.93174198743878   -4.30995755753372    1.52390370824827
H        -2.33861716883446   -5.10161211449096    2.13469679647851
C        -2.78132806229460   -3.44093959040607    0.85760182206105
H        -3.85073749363827   -3.55510249325035    0.94751850065816
C        -2.25856243730485   -2.42406158868979    0.07515262537092
H        -2.91970029713147   -1.74602128121638   -0.44336280937468
C        -0.88881764543106   -2.26971278940738   -0.04338402217883
H        -0.48811910239686   -1.47694022518945   -0.66001806280589
C         2.04057996323014   -1.96267991953361   -0.92805687820015
C         2.77605184476306   -0.78349784144785   -0.93875644805507
H         3.12216956442495   -0.35490026126094   -0.00810423373420
C         3.05360246760357   -0.15261963393470   -2.13908204397464
H         3.61802466983877    0.76787323651830   -2.14200469870431
C         2.60849632976564   -0.69664150488699   -3.33229053186910
H         2.82515919690469   -0.19976200388256   -4.26545127532771
C         1.88191193148094   -1.87771855604923   -3.32838427503211
H         1.53276676615363   -2.30066551815397   -4.25850445997013
C         1.60666045872725   -2.51284292284011   -2.13293047077255
H         1.04271179076380   -3.43722134010465   -2.11575234498737
C         2.09818672138028   -1.77167693872484    1.93257465681754
C         1.36104991025228   -0.60755837354517    2.12653264643224
H         0.51626521309769   -0.39618537577937    1.48633398530851
C         1.71802138398634    0.26920857620225    3.13248599751482
H         1.15112975594747    1.17383187250868    3.28970592339780
C         2.81509864426536   -0.01420693362391    3.93284747104180
H         3.10679959645280    0.67652275555433    4.70927662700045
C         3.53448403736778   -1.18155936012147    3.75101143273089
H         4.38686399953521   -1.38762595330896    4.38133323831466
C         3.17506914984790   -2.09079641361765    2.75827936164591
C         3.94196910013527   -3.39670993193178    2.60373319102819
C         3.83939946454658   -4.15977960084539    3.93271260104442
H         4.33369807339527   -5.12293775513437    3.86053177000164
H         2.79762658407309   -4.30942715141653    4.19627248078507
H         4.32644179425396   -3.58849494883909    4.72046062357261
O         5.33082507207962   -3.16946786907187    2.40776233272423
C         5.71251659331581   -2.15950849812038    1.52491603568828
H         6.77795924866474   -1.99498600375997    1.71918666360565
H         5.18337312063091   -1.21711405006367    1.74503490324659
C         5.53870329361596   -2.44584880250243    0.05069656570180
N         4.71053141871872   -3.40078707957703   -0.35817767966300
C         4.60580721594116   -3.62546114490514   -1.66811956591134
H         3.94124791958840   -4.42312773025183   -1.96553227689211
C         5.28794898350264   -2.90126026851352   -2.62288131468324
H         5.15863870924313   -3.12857664203887   -3.66822733377980
C         6.13037245045080   -1.88166738031737   -2.20347065057117
H         6.67577676664591   -1.28274203546982   -2.91585028635314
C         6.26144960009756   -1.66265509873909   -0.84737904421059
H         6.91471316168243   -0.89196749112547   -0.46919388976988
N         2.66383493142439   -5.81992354187908   -0.74705095673956
C         1.96626358594041   -6.59601018568650   -1.22722569888331
C         1.09527170644328   -7.55457480932629   -1.82284352606604
H         0.06064152725876   -7.25030924650646   -1.66341507170334
H         1.25677360565102   -8.52704876474296   -1.35802858157209
H         1.28970178780159   -7.63087618982893   -2.89261165028647
N         4.78214231450748   -5.78233478668241    1.30786405928178
C         5.73534843111949   -6.38483454732696    1.53763245462310
C         6.90367668133555   -7.14466533759437    1.84616506685182
H         7.52184771628224   -7.26373310451201    0.95602519764970
H         6.61645394085450   -8.12871073563964    2.21803819957799
H         7.47775396302987   -6.62562531007188    2.61457729524669

