65
CSD_code = QOXZEK | q = 1 | S = 0 | Stoichiometry = C26H34CoN4(1+) | MND = 4
Co       12.42745536700571    8.88857597481644   10.33120552199149
C        12.61868913882584    7.00745829884021   12.31090478964991
C        11.85062160927992    8.10752846361986   12.89328502604543
C        12.74716063318830   11.78732547058726    5.41218625393495
H        12.81100976667692   12.32937386469721    4.47879154663374
C        11.53148220572262   11.17694459554398    5.68264486048607
H        10.76006028523024   11.32548805248345    4.93770495698496
C        12.03240634457856    6.00807155478900   15.25585940867590
H        11.96234711809782    5.46530141729602   16.18837568001920
C        13.88931928458402   11.78554349719293    6.19729696317499
H        14.73962182455089   12.31353838918776    5.78460627956961
C        13.23982754328275   10.46208079658832    8.24345596734668
C        12.80275879153582    5.42227737063223   14.26380796777411
H        13.27429730915559    4.48529803988301   14.53174382440037
C        14.09713119656144   11.22810975082967    7.44488420585123
H        15.08497815363467   11.39469403197008    7.84932839083652
C        11.27729038804846    8.13467291801086   14.17132527157398
H        10.67581165647815    9.00423114210314   14.39280046424292
C        11.33993367119012    7.20819766712561   15.19382989974725
H        10.78022047915854    7.46923423189309   16.08305289888255
C        11.89375791902317   10.01194426012663    7.89013112976914
C        13.03994802515245    5.84660036705580   12.96988494983686
H        13.66693875753615    5.18421623075051   12.39085697497258
C        11.16515074715676   10.38452660966549    6.75306884672927
H        10.15203287451593   10.01230680334780    6.70733883978584
N        11.71394071776903    9.09700589761173   12.00401175485256
C        11.08494770109629   10.35788981470635   12.34688408540788
H        10.11323598816243   10.19052235965230   12.82694133657001
H        10.88459649096172   10.88281388541369   11.40766863748037
C        11.96413839205816   11.24704922558254   13.24644122434117
H        11.99548500733485   10.82740335319747   14.25321589940021
H        11.49982543497011   12.23239876359893   13.30759027638210
C        13.40101694557762   11.37478429665654   12.73957227086753
H        13.99842466194658   11.87887549830739   13.50095787043758
H        13.80876884658560   10.36887204837979   12.62317832881905
C        13.51156339243643   12.14544081202451   11.42187850086477
H        13.48926495633834   13.21637523134946   11.63000439864537
H        12.65519922353478   11.92300636182412   10.78266654807122
C        14.78429926330177   11.82317861549694   10.63810011062440
H        14.85354126513561   12.52023675862920    9.80143685483644
H        15.66071439272217   11.97012516112169   11.27099858625303
C        14.81451281415846   10.37795258545312   10.10575826694047
H        15.67295740838159   10.24721921751641    9.43587483807052
H        14.96293162964838    9.68840143177612   10.94318629525836
N        13.58252200500293    9.98831082887620    9.44761867182920
N        12.92450791329782    7.28304901196429   11.03709956938008
C        10.13123930833542    8.53958773565286    8.71215870246438
H         9.34532143109766    9.24714095420105    8.42159749360833
H         9.86169365941345    8.16056879200982    9.70293250101162
C        10.17072543652404    7.36648830856720    7.71451546611067
H        10.22864047085985    7.75626565778882    6.69697985994158
H         9.23721818129206    6.80969168665320    7.80827398191296
C        11.36192297912743    6.43371861536719    7.93558515882501
H        12.27196674372649    7.03609557959451    7.91014876284559
H        11.41705761326538    5.73077129037345    7.10283159911836
C        11.28220677855983    5.65221187832923    9.24908080463407
H        10.83854798561851    6.27262704340208   10.02993570131243
H        10.62917056310015    4.78861304635079    9.11324578848116
C        12.64374697120680    5.16549178620240    9.74651552637986
H        12.47687958084325    4.49783087906740   10.59331631673542
H        13.14619264073430    4.59559077324530    8.96354732844527
C        13.57511533076499    6.31514401714262   10.17534772189488
H        14.47240357974031    5.90621553882167   10.65545679528583
H        13.91489210817321    6.85499532619691    9.28537788518441
N        11.40751309702548    9.21470013285865    8.84759736156052

