59
CSD_code = QOXZAG | q = 1 | S = 0 | Stoichiometry = C24H30CoN4(1+) | MND = 4
Co        6.49952082122348   21.61995672174490    5.03500872149518
N         5.32272706248295   21.28937042064351    6.36746930931585
C         5.68657678305612   21.67699202453968    7.71280597790720
H         6.78177341337023   21.77344097375102    7.73342899974472
H         5.41747988219806   20.89847364237713    8.43627450505735
N         5.23900016655052   20.77844459729621    4.03815752523611
C         5.94950461320676   24.48614833970715    4.75595712086175
H         5.40177217905536   24.69435514915116    3.82696289103832
H         6.53399946380143   25.37384730402788    5.02508879877233
N         8.09065737600460   21.33125567915431    4.22293842848387
C         4.16988244655603   20.67730274200631    6.07437544468756
C         8.61343541327138   19.98460866932189    4.26558441191613
H         8.18542479592649   19.49289692467469    5.14953934738899
H         9.69926622311024   20.00183228204324    4.41192565067096
C         4.09614854066653   20.42647119686695    4.63318100082835
C         1.78311000082871   19.44509017104318    4.41176258972109
H         1.09742281636424   19.09500398731610    3.65056254766841
C         1.32011682000081   19.35309548428549    5.71709353639592
H         0.33144092750349   18.93367285610233    5.84231539315371
C         2.99707302770734   19.90083126305424    3.93823934615129
H         3.11227964579319   19.83548317809435    2.86637798291201
N         6.86747434418094   23.37624107054404    4.54267551322973
C         3.21264773420368   20.32631083317520    7.03389081606402
H         3.47599876093049   20.55188680415688    8.05764076777656
C         4.93904510603186   24.25403156262331    5.87817557193510
H         4.36888770821592   23.35092235084236    5.66463881766556
H         4.23379358113915   25.08626589240489    5.85840267304462
C         5.08396291747129   23.02659827375269    8.12744906303127
H         3.99510259854205   22.98427234128272    8.06721380705578
H         5.35820804756646   23.20611398166775    9.16814323805702
C         5.45475857357079   20.62889868477312    2.61214376972139
H         6.28813228554198   21.27856028981420    2.33557226250791
H         4.58063051677678   20.97340921384363    2.04667465840685
C         1.97341051774811   19.73398202449857    6.87836628969630
H         1.42857452731153   19.56232076010426    7.79795639849479
C         5.60705862585603   24.17181979184794    7.26073959976642
H         6.68517645155323   24.04312596559237    7.13530853281208
H         5.45433348684782   25.11228611658375    7.79108453916172
C         8.69725427961163   22.32923352734429    3.58461188482655
C         7.90122945452959   23.55006866881738    3.70578859244060
C         5.79525613724705   19.18544120224431    2.20518935942745
H         4.89562929872571   18.57034634688126    2.26566680781179
H         6.11740911045421   19.20068116519952    1.16276042149696
C         9.92637960913200   22.18721612978178    2.92030295277659
H        10.38672923052076   21.21306879835887    3.00526897383199
C         6.86607869954080   18.51159982125331    3.06501201882554
H         6.94370467437781   17.48076047301602    2.71543283554999
H         6.51425132262255   18.47018550696863    4.09848757005253
C         8.14525564699747   24.75191064353007    3.02480029507556
H         7.40611680702991   25.52677514948143    3.15910951371731
C         8.26347082558778   19.14884798708448    3.02011762905927
H         9.00599211811212   18.35305407202542    2.94967152381568
H         8.36453043117698   19.77049727183921    2.12897143803714
C         9.19257278498338   25.11420924272454    2.19653882796484
H         9.12563817850050   26.11719198624580    1.79428972981383
C        10.64099464486108   23.09324286829919    2.16591443473132
H        11.57768456495326   22.72382504279352    1.76826155123581
C        10.31569493910237   24.39741025346931    1.81900784104654
H        11.01881903976714   24.91101427793184    1.17826995062805

