57
CSD_code = QOYCAK | q = 0 | S = 0 | Stoichiometry = C18H34ClNNiP2 | MND = 4
Ni        8.77211037919048    8.44172426195868    3.74447286772702
N         8.18619440672614    9.91635639653139    2.79794281417360
Cl        9.43060678732026    6.78700407188111    4.80734377926702
P         6.87971927289240    7.59286378034865    3.17286313167864
C         6.24810808845096    8.72982588455846    1.85879362072860
H         6.40770279802280    8.27378080739334    0.87520010886871
H         5.17759072636388    8.92392788316638    1.97696649033271
P        10.52683698657371    9.63487230774828    4.09696710487699
C        10.02968249128723   11.34046326147422    3.58491437697962
H         9.81225947536464   11.93939290977059    4.47650943064489
H        10.82563914307066   11.83877792129272    3.02300018545751
C         7.07543853769317    9.96949555843082    2.00743671619149
C         6.96929470307440   11.23106967444818    1.46994911354405
H         6.19986293533363   11.58140287113735    0.80775465044444
C         8.06364174802889   11.97726542922852    1.95494862401227
H         8.28668450225518   13.00376701568154    1.73175255210399
C         8.79057241632897   11.13923190421040    2.76793789549086
C         6.68538539684006    5.86721685620997    2.52474454629509
H         6.89008666954907    5.20888787985173    3.37691495662696
C         5.63148022973499    7.77687176517294    4.53458718135091
H         4.62323012889275    7.74669543427841    4.10242497593729
C         5.29107347784112    5.58837597470237    1.97717037027548
H         5.06586415534140    6.23957496113674    1.13503118487933
H         4.53010383378251    5.73441140669620    2.74060642414762
H         5.23017420842038    4.55743532154118    1.63155109043017
C         7.77426801445820    5.63686795561098    1.47936581121728
H         7.77823609623459    4.59975558784943    1.14940332686170
H         8.75009013400647    5.86392053665878    1.91165641106752
H         7.62476056963400    6.27301515253420    0.60782793262619
C         5.79738303434982    6.67054019388112    5.57188327747663
H         5.47636082965660    5.70735416750817    5.18154065226012
H         5.20205760513917    6.89301857479125    6.45618987302892
H         6.84225727619592    6.59230762006503    5.87099918197648
C         5.88377778747934    9.14800736333459    5.16001251279003
H         5.72264071954352    9.94624446483831    4.43671064235013
H         6.92396894064903    9.20350383959117    5.50427549415100
H         5.22938111141508    9.31435268745243    6.01424963633112
C        11.87693930195334    9.20436558513564    2.89784877597104
H        12.55639374859981   10.06070155381770    2.80158057899887
C        11.33905018010820    9.79010847437905    5.75568580216540
H        11.78343141618530    8.80863592423471    5.95760960556792
C        11.18806868326077    8.93939508760625    1.55990172304622
H        10.67826496550914    9.83066984151651    1.19647773786224
H        10.44089217714256    8.14633035499175    1.68760475841542
H        11.90623893177497    8.61744417253093    0.80743160054624
C        12.64189447083200    7.97032117381736    3.36618231408376
H        13.29552124196162    7.61064852572991    2.57289513902807
H        11.94447528544406    7.17419254540468    3.62519896207419
H        13.25573118520409    8.18918529778687    4.23705716919405
C        12.41747919548661   10.86582521868258    5.79445691254056
H        13.20295246304210   10.66438143099055    5.06935732360817
H        12.87068080957954   10.89790960764653    6.78419744842481
H        11.99652489341108   11.84716265632436    5.58501826843948
C        10.24219218175493   10.03246037128211    6.79001700459991
H         9.76172662611011   10.99791619328133    6.63615915808031
H        10.65171264980361   10.01084351281003    7.79807168839804
H         9.48480397578468    9.25092278911526    6.70974908438790

