38
CSD_code = QOYDIT | q = 0 | S = 0 | Stoichiometry = C13H16BrN4O3Re | MND = 6
Re       -0.39765397799580    1.11015792518384    3.17835351173899
Br        0.90327326753320    1.65951691328718    0.97227836190878
N         0.80792763534485   -0.78999001713563    3.16584539097374
N         1.07342426814573   -1.37793328842714    1.98960051215998
H         0.81155286836151   -0.91812875619834    1.12283484022047
C         1.36312182490676   -1.55360668909391    4.10315795809617
C         1.99905951340842   -2.64413375079527    3.49570069381237
H         2.53088464302309   -3.42949199246373    3.99150693478505
C         1.79783659517557   -2.49715682788694    2.13678654893935
C         1.30867044390763   -1.24387525177994    5.55544730639910
H         2.21156886794913   -0.71565855728066    5.86593891243729
H         1.23991609473140   -2.16475944086363    6.12956783789134
H         0.44807861072592   -0.61692515629365    5.77782231026547
C         2.22916630066305   -3.32415829266802    0.98444095666095
H         1.89643703008201   -2.87747949803387    0.05082740525163
H         1.81427857121240   -4.32779594180610    1.06314747700905
H         3.31432124197335   -3.41143348689489    0.96557273339217
N         1.38366478441932    1.88292047142338    4.25405058972368
N         2.58696207810429    1.79430416377449    3.66860687084825
H         2.64382430455946    1.57803249168668    2.67355221066347
C         1.58951790272131    2.35879561648318    5.47846044801830
C         2.96180466664076    2.57654640567473    5.66446620399875
H         3.43395524078408    2.95775828181565    6.54623282932587
C         3.57063277074596    2.21818506995359    4.47829697988908
C         0.49741731675847    2.61368975343008    6.45280688596567
H        -0.42428275346487    2.86893379436344    5.93140141681466
H         0.77603516983959    3.43100378300377    7.11334877687375
H         0.31158971889661    1.73016759322415    7.06376994707120
C         4.99230867395143    2.22789420851439    4.05661175469470
H         5.57881533686803    2.83639834919925    4.73879687840510
H         5.08748867137210    2.62868559899078    3.04891124202351
H         5.39897246643359    1.21597011478140    4.05865103477917
C        -1.40766922208306    0.64947391787853    4.76535879588423
C        -1.22058141929808    2.86983043006588    3.06190251686815
C        -1.78294899474555    0.30985071508046    2.07162938154483
O        -2.08357276082734    0.38493346415045    5.65774373673820
O        -1.65233970733953    3.92498653868782    2.95176629745193
O        -2.55085804347762   -0.17300865304668    1.36970551049532

