50
CSD_code = QOYFIU | q = 0 | S = 0 | Stoichiometry = C22H20Cl2NO3PPd | MND = 4
Pd        3.84069302760417    6.42036736329425    1.06747317416093
Cl        5.21947458074951    7.79510249440342   -0.14904283721859
Cl        2.89402857600862    5.55806024872478   -0.78923451280438
P         2.68727227074002    4.92493621579147    2.21530706862401
O         6.70471573997688    5.32808524997047    4.16733943890083
O         6.80178420311967    6.70706988641723    5.93709674437125
O         4.36745686832913    6.89576480414931    4.02568880417664
N         5.96533863723011    7.38253082226720    2.59968791035410
C         6.60545910675691    4.20577665019121    5.03238086020173
C         6.77488377873671    6.52591373473921    4.75156493587656
C         6.86221193490179    7.63638024533089    3.70643709039897
C         4.71665721926595    6.99593507839969    2.73352277667846
C         3.18428829196431    6.41349972598026    4.53008454419635
C         2.90514194063494    6.85184688110369    5.82292001035804
C         1.77346986036204    6.41489100005608    6.48127972846788
C         0.90560969705676    5.53298482602457    5.85501050522734
C         1.18481440974263    5.08777240397099    4.57830338977734
C         2.32761109776261    5.50659501793197    3.89774466173059
C         3.79979457478672    3.51516669975051    2.49777175668080
C         3.55546295931607    2.54861860945612    3.46903912410295
C         4.44234532472244    1.49925038640069    3.62974707500587
C         5.57124546297951    1.41402626070531    2.82900148696303
C         5.82377305478482    2.38312101995000    1.87009706281241
C         4.94258201179385    3.43688905450032    1.70443085460438
C         1.10969231176416    4.27413232043366    1.61844851266577
C         0.17408052462377    5.23939541806408    1.24959404631515
C        -1.04748018199141    4.85326698871600    0.73637373507118
C        -1.33252677315601    3.50455002969630    0.57848629604604
C        -0.39536286194839    2.54671208840691    0.92681808863666
C         0.83208842855794    2.92520409516369    1.44477937990001
H         6.21214309850042    7.64705726969565    1.62046045266368
H         7.26814334213430    4.33187403267435    5.89056797102536
H         6.88886471833850    3.33726959839687    4.44348755010787
H         5.57775666791450    4.09797581569503    5.38705401760172
H         6.63024437876396    8.58417953635256    4.20497874180909
H         7.88351371548936    7.67493634635973    3.32229134380055
H         3.59821754727091    7.53388316644473    6.29079139425334
H         1.56730677022626    6.76537160308717    7.48051968118976
H         0.01638781188493    5.19177753140509    6.36232285387396
H         0.51175713921805    4.40085171568407    4.08408940276124
H         2.67640451225768    2.62513845923240    4.09492229197085
H         4.25338712217458    0.74507413686541    4.37945494192544
H         6.25669124526227    0.58896079086801    2.95516901315535
H         6.70588529947340    2.31562465845007    1.25146923949843
H         5.12733882938693    4.20692871674691    0.94488256136096
H         0.43517148103850    6.28919016683952    1.35035018220598
H        -1.77280988145957    5.59785684788009    0.44455398329094
H        -2.28384970055404    3.20106609404653    0.16749559553721
H        -0.61546428493374    1.49879429668149    0.78522458718126
H         1.57190411056292    2.17944359672143    1.69926248233811

