42
CSD_code = QOYFAN | q = 0 | S = 0 | Stoichiometry = C13H16ClN4O7Re | MND = 6
Re       -1.56375866404303   12.88856004004525    3.59682074990806
N         0.21115030570139   12.88729560068891    4.87080112874741
N         0.19888858818349   12.16009961483585    5.99848538163606
H        -0.61940781097994   11.61746905054285    6.28850810181802
C         1.43623872341083   13.39805277812406    4.76105399584694
C         2.21712093807807   12.97023181823858    5.84098685003121
H         3.24164006063477   13.21684764362303    6.02832319202081
C         1.39068381565198   12.17402549185944    6.61280447716662
C         1.85157695281637   14.28921905451781    3.64564492450166
H         2.34428005001015   13.71748975235139    2.85842803690095
H         2.55390346140654   15.03446308106146    4.01122478883086
H         0.98280694701301   14.78852156515350    3.22232899631889
C         1.62421373872013   11.44426049786585    7.88184624606047
H         1.62438624349669   12.13900225405371    8.72144795788165
H         2.58863552078482   10.94133274434840    7.86162392286061
H         0.83584734063094   10.71195414948571    8.03982089320957
N        -0.18880792027820   12.24032789545748    2.05229207245758
N         0.48155624348918   11.09887804663365    2.26144439308401
H         0.20585083659688   10.50187108739029    3.03424257000797
C         0.24161057997544   12.73024988280875    0.89369619783378
C         1.20871004921075   11.86807101978041    0.35749185874773
H         1.73762235261487   11.99277476088101   -0.56448683551656
C         1.32658515706563   10.82361289854983    1.25282250375177
C        -0.26610148595161   13.99725404674182    0.30865726612076
H        -1.29600364242904   14.16601230018038    0.61819388178286
H        -0.21317564333429   13.95166375270243   -0.77592704792653
H         0.33376049687067   14.84208884641140    0.64375702421249
C         2.17441520817173    9.60671508293527    1.23942724419822
H         1.57161111825737    8.72049023664954    1.43165780613691
H         2.94292214829767    9.66597114230427    2.01048775321123
H         2.66007280927167    9.50163140765507    0.27369276064554
Cl       -2.33226918856607    9.99029238519989    5.03003436293202
O        -1.33482624663251   10.56592163558080    4.12410451894226
O        -3.58657650499252   10.52723553638599    4.69043511430260
O        -1.93914231498610   10.39793480702053    6.34348258003783
O        -2.26349961244458    8.59639874152210    4.89034402352972
C        -1.58539032232704   14.77552214578608    3.19326562051129
C        -3.12928562253847   12.51622633278647    2.49290508580956
C        -2.73085554900768   13.17182435344202    5.14101229248897
O        -1.58629146094654   15.90614919908014    2.96873097791656
O        -4.03468880065570   12.21189638259474    1.87302314318466
O        -3.39830889625069   13.28396093671671    6.05586318785595

