107
CSD_code = QOYFOB | q = 0 | S = 0 | Stoichiometry = C30H71BP4Ru | MND = 6
Ru        3.33255965306982    5.20074250619669    0.03670374433671
P         3.62232471030492    3.35366412335463   -1.42528508824106
P         4.75514901793589    4.06218068765474    1.30619804711753
P         3.84180091895468    7.00599186952169    1.48020790909828
P         2.75385528141984    1.68846806779019    4.56487832711675
C         5.02050086981369    2.31423098538565   -0.73683371666528
H         4.55603375988982    1.49746350430921   -0.18016168086298
H         5.60021931279995    1.87487299007891   -1.55234208764563
C         5.90123158562429    3.09935398347104    0.22661364459864
H         6.52184006298901    3.82312342058950   -0.30732496371316
H         6.54782621411299    2.43309693446567    0.80844663278994
C         5.90267159676284    5.19889483169122    2.20768084935593
H         6.41309220864974    4.68542564429400    3.03001708467160
H         6.65261532603637    5.51483843186323    1.47838454204089
C         5.10503805740111    6.39200515796442    2.71855335749025
H         5.76225494738397    7.21359392756393    3.01695567156802
H         4.53939759495757    6.07549333634924    3.59848537012253
C         4.41506158449394    2.75865629169389    2.58865971423597
H         4.16647574446960    1.83364451926414    2.05742546617183
H         5.33520801117011    2.58017344693062    3.15190356717609
C         3.24646494962305    3.13816859808366    3.48953160421924
H         2.40500713124329    3.40039173024961    2.84179929133481
H         3.49024669392207    4.00964808824808    4.09950280405931
C         2.32245990938523    1.95899831324863   -1.63078170573020
C         4.29823054502966    3.78019762208991   -3.16546477224200
C         2.60372181224726    7.80228641996596    2.71443123128147
C         4.79983753410225    8.44005653572288    0.64388095188915
C         3.55847966968440    2.17461222765748    6.23297316503154
C         0.86478686091108    1.96509297575518    4.66158049344742
C         1.68087867096006    1.82330594750066   -0.24575338955390
H         1.11039987685917    2.71717270412848   -0.00555077222405
H         2.43459168095617    1.67557368657838    0.52809972462935
H         1.00382298460030    0.96941212824936   -0.22561979741377
C         2.84477046662012    0.57828377197855   -2.04122263828633
H         1.98662167811593   -0.07044502945907   -2.21886831124496
H         3.44043672316597    0.11760818741707   -1.25749007914137
H         3.43283221297194    0.60275562912542   -2.95014204168573
C         1.23218439515785    2.39889657728413   -2.60883576613913
H         0.35132593715463    1.76816908832829   -2.48420331142570
H         1.55349977045383    2.31688842625288   -3.64378396671718
H         0.94031005540438    3.42818032108512   -2.41106209667548
C         4.40452108000606    2.62620519941251   -4.16198328758641
H         3.43381744255866    2.22557161568296   -4.43582488597414
H         5.03161352059590    1.82285706714380   -3.78042544796001
H         4.87196307573266    2.99994385660075   -5.07376475171327
C         3.38884845495377    4.86998566076298   -3.73459831459193
H         3.79369222885314    5.24922291555047   -4.67273151587220
H         3.32116362547316    5.69736129604515   -3.02741409493022
H         2.38563367305122    4.49745378471447   -3.92284121843427
C         5.70435227237877    4.36677570540836   -3.00616001854119
H         6.43263782427196    3.60346169936407   -2.74121933982487
H         5.70931006310247    5.14275370833294   -2.24464631453791
H         6.01904509030695    4.81653024967880   -3.94721004336565
C         1.77932925231516    6.63221832362546    3.26021557992878
H         2.39298873149030    5.96021003669032    3.85673022231391
H         1.33178760524842    6.06831748872751    2.44579754842225
H         0.97687150445628    7.00320240717098    3.89792864717890
C         3.17983127810188    8.55341362378208    3.91823650047433
H         2.35316487739349    8.81912507419706    4.57832869682459
H         3.67931424881854    9.47283204060764    3.63946706412827
H         3.87193707218577    7.94345680962563    4.49258562936676
C         1.65682872731591    8.72280421583502    1.94328249226719
H         1.31973440100069    8.23558994583626    1.03022139065528
H         2.12895475500350    9.66663021806399    1.68355591874992
H         0.78043977244643    8.94794632078762    2.55179173107038
C         5.04095296650662    9.68974714120877    1.48996474028275
H         5.53057678568469    9.44927542163510    2.43104027782164
H         4.12353868617459   10.23470310687327    1.68862221592751
H         5.70182015287778   10.35834553012384    0.93705996105917
C         4.01557608530207    8.81733020959418   -0.61376941836435
H         4.55884724545916    9.56820023837063   -1.18718808802392
H         3.03530267984914    9.21769668888286   -0.36937703325835
H         3.87877767438758    7.93523473614647   -1.23965171797619
C         6.17663850599663    7.92165266208106    0.21657480907158
H         6.08512325615933    6.95949827752079   -0.28160076509990
H         6.84837905213123    7.82352471027530    1.06662624881898
H         6.62686117397018    8.62280053979899   -0.48533033136697
C         3.44186167767999    0.95488463427631    7.15119351704180
H         4.03469419118345    1.10664336470239    8.05301986946501
H         3.81326134731600    0.06585180551575    6.64362120578598
H         2.41499912228650    0.77199437905660    7.45150816421918
C         3.01101490214763    3.41143067010278    6.93638717330461
H         2.00931042148216    3.23760042171593    7.32043824697679
H         2.98897477634505    4.27473105791284    6.27386503449322
H         3.65212789647795    3.65818229013847    7.78352035850068
C         5.04774004848621    2.38214438641330    5.93553293915321
H         5.60801455482167    2.43317743367698    6.86898222089105
H         5.22507203007263    3.30752454040894    5.39232083622646
H         5.43953383626296    1.54840466500364    5.35329534979267
C         0.36300614648527    3.40239885325982    4.77317510595572
H         0.66186728679206    4.00215427062665    3.91858514113274
H         0.71133823818830    3.89027871791445    5.67732278124715
H        -0.72692000310484    3.39060688152736    4.79992603058924
C         0.29192429288922    1.12747642668168    5.80478076285937
H        -0.78816209182640    1.03561985937022    5.69067122506554
H         0.48477028645339    1.58756318475719    6.77086224992408
H         0.71935177669323    0.12568078763285    5.79791150189072
C         0.36677064708064    1.36673186569519    3.33947633643734
H        -0.72086030287893    1.40368386171860    3.29369351708202
H         0.67841462734354    0.32668357267217    3.25082584419433
H         0.75648176337322    1.91427532832736    2.48428913787278
B         1.13441683648775    5.58521853461692   -0.31397397709159
H         4.56691944835550    5.69385354641072   -0.69570055845003
H         1.76015937307381    4.82989075901436    0.60247284008650
H         0.51017397773103    6.46226762085220    0.18483629869508
H         0.47236187191790    4.93676044770227   -1.05467504143829
H         2.25184016196540    6.06123869624872   -0.93174420699947

