45
CSD_code = QOYFER | q = 0 | S = 0 | Stoichiometry = C14H16F3N4O6ReS | MND = 6
Re        7.91938093256756    8.09561963937962    4.46022496175273
N        10.05999265386947    8.25340394161822    4.10773873285103
N        10.58741461701906    9.48468973340829    4.07970142987515
H         9.96076332540781   10.28447795994074    4.04565297377808
C        11.06942566192170    7.40201042863607    3.95226725390608
C        12.26530493457348    8.12136086013744    3.82096600864995
H        13.24627539885932    7.71550337528119    3.68511588838804
C        11.91697368404300    9.45642115809696    3.89142897056013
C        10.89476222994377    5.92748857011494    3.92948987978115
H        11.06192470416387    5.50648992780354    4.92012721154562
H        11.61280290847438    5.48070707697964    3.24663932702084
H         9.88406416267991    5.67443824460129    3.61437107434216
C        12.73196054725723   10.69133887816603    3.78681139508169
H        12.87331746344190   10.96166501684984    2.74009362989995
H        13.71278167695150   10.53672711786264    4.23002772684031
H        12.23726810001458   11.52030040047467    4.28831603591837
N         8.36593542127883    9.14848836104384    6.32876062322458
N         7.65531933093323   10.24276649729812    6.63658944294900
H         6.88003474506207   10.55132676826206    6.04359638043110
C         9.31398267616812    9.03612173876691    7.25698951191408
C         9.20745740876733   10.09996447821961    8.16100133399393
H         9.82961518116260   10.28151287723572    9.01288581727760
C         8.13360525406284   10.85630079644782    7.72923057007920
C        10.29369609235870    7.91792825528631    7.29819280911614
H         9.90964517979642    7.06320751123950    6.74535664974102
H        10.47374681879018    7.62719575416259    8.33067677086792
H        11.24669109105560    8.22020287487731    6.86269098214954
C         7.51490611696311   12.09087863392575    8.26807764251606
H         8.27620698985073   12.74992099005600    8.67834516965537
H         6.81392318050418   11.84481438839182    9.06574924724525
H         6.97232711392323   12.61012720969246    7.48131432956294
S         7.01425451793050   11.24022433910955    3.64154289551293
O         8.08857312097956   10.24230873878806    3.67664199353084
O         5.98423606292429   10.97832903627588    4.62172912523298
O         7.52980748811948   12.57010173893161    3.58054669662530
C         6.21373250627166   10.87758529315806    2.00696544883020
F         7.11098890021235   10.95956886497008    1.02411761580457
F         5.74618228415883    9.62629921046312    2.03303623312409
F         5.20798658354546   11.69828692930456    1.73083232280763
C         7.90717714708755    6.32765685491925    5.24164925820772
C         5.98799555561111    8.24415224776392    4.75329483013489
C         7.61948453471826    7.38839660942647    2.67148863544021
O         7.90330905585932    5.28184755089876    5.72882160769590
O         4.86128053532624    8.30346496998493    4.89803126605133
O         7.46258610538969    7.02877815175985    1.59937229008933

