105
CSD_code = QOYGUI | q = 0 | S = 0 | Stoichiometry = C31H68OP4Ru | MND = 6
Ru        1.42924648476506    5.12939746220942   20.66343421668365
H         2.05258501363808    6.09614694870633   21.69208988131054
H         0.04234870283753    5.46352077886261   21.26405869162148
C         3.17762794062495    4.86671975840388   20.14503439432910
O         4.30267665941742    4.74181591962287   19.89463408959791
P         0.81183464200158    6.84546256359656   19.20763304225463
P         0.21780157586639    3.80777690683849   19.32072125284980
P         1.22303481896737    3.34907169939778   22.16142354463461
P         2.42687358483515    1.58186298516231   16.08950378348149
C        -0.29316140429647    6.11234022961408   17.88400987829028
H        -1.02723173030871    6.85256953210642   17.55236781382639
H         0.35838566250799    5.88379972176218   17.03693831308913
C        -0.97810213025619    4.82631956556694   18.33883528920244
H        -1.36833819639722    4.26442659775490   17.48214637619173
H        -1.81257955259457    5.05219679322335   19.01000895078102
C        -0.88611772785453    2.76711832912132   20.37563038258024
H        -1.62875777919623    3.43225020385093   20.82649086624448
H        -1.40677807075096    2.00540399009017   19.78316003269694
C        -0.01091880025948    2.12939579902011   21.45103822009758
H         0.57137808205121    1.32508282443777   20.99490607270259
H        -0.61812430324779    1.69223351140992   22.24828546716781
C         0.73052957341024    2.51314788058914   18.10064753135931
H         1.07468095882967    1.64560141407656   18.67418422661381
H        -0.15555225015526    2.21027976477310   17.53393195630288
C         1.85857304839073    2.98379894362812   17.19132184604426
H         2.69693223146546    3.28216722256602   17.82365951224169
H         1.55413477473029    3.85015270012271   16.60171172907614
C         2.12404899757774    7.67336472915908   18.08421573609130
C         3.09049226169032    8.38932325428030   19.02705530070594
H         3.99826911709913    8.68035032953916   18.49922679051993
H         3.36266259443898    7.72621941816140   19.85132893384931
H         2.64049081572096    9.28944590668439   19.44026900984253
C         1.65070692685612    8.62316081950988   16.98047156513350
H         1.41938592130842    9.61408021935348   17.35207365880290
H         0.78334517263369    8.23242620335307   16.45313902465972
H         2.45792266506867    8.73242913604596   16.25550648031279
C         2.86896497445202    6.52944012799742   17.38465017626659
H         2.37738247351122    6.24036126136645   16.45682910834297
H         2.93115939132942    5.65803344329579   18.03209681868279
H         3.88288265386598    6.83872432933823   17.13571129828814
C        -0.31096629668177    8.21225581550373   19.93917087082398
C        -1.68953798084959    7.60842524371369   20.22699157069312
H        -1.59276418400730    6.66317713350732   20.75522833225040
H        -2.26330434108519    7.45394353808860   19.31508148600053
H        -2.25453460199108    8.28815312854054   20.86399433738619
C         0.30973439287629    8.64917706204544   21.26559096925968
H         1.29693471430687    9.07995406686832   21.11938828914391
H         0.41313954862996    7.79175446200031   21.92650213842995
H        -0.32327634047432    9.39312619016490   21.74849787079076
C        -0.52643928645485    9.44374169318994   19.06081752905919
H        -1.32556059217542   10.04421304301256   19.49657504151431
H        -0.82547356308953    9.17947801234320   18.04956905949545
H         0.36268372409570   10.06584175698876   19.02538459629126
C         1.61846574682159    2.07137501358247   14.42509274402944
C         0.11695306496986    2.18642787917884   14.71155418859255
H        -0.11672273340075    3.07978330059993   15.28629137730880
H        -0.23399703791574    1.31154432802191   15.25865169682026
H        -0.43638783677326    2.24085078094348   13.77415871590480
C         2.10544394225299    3.35679712367225   13.76589517916523
H         3.11657682808566    3.24539457752653   13.38316629886800
H         2.08202270798655    4.19743388444684   14.45694429068173
H         1.45694559335501    3.59922227758527   12.92307538741659
C         1.81241077638433    0.88867656569476   13.47234514141285
H         1.21854808156830    1.03327961952502   12.57000408679930
H         1.48983378207567   -0.03561550867323   13.94932064229901
H         2.85036066168141    0.77519040669553   13.17606742417432
C         4.30172130911267    1.94660977332828   16.03123411264137
C         4.92621090056335    1.15001138999317   14.88546266565221
H         6.00658292322188    1.09530612190190   15.01805701477263
H         4.73383955091931    1.62036577898735   13.92415497693198
H         4.53556634141041    0.13338519657367   14.86691363143501
C         4.80414584551438    1.35162254013759   17.35348173203880
H         4.53073093172608    0.29955706412003   17.42719418956033
H         4.38488923094607    1.87443885785891   18.21060114245814
H         5.88875799053577    1.42964949329624   17.41371576749856
C         4.74438155210096    3.40514185747238   15.94514763996579
H         5.83401796466903    3.43670550367232   15.92400426687365
H         4.42034997807514    3.98020069158581   16.80776500257113
H         4.38045620641423    3.89354443990127   15.04722077426855
C         2.70886242242715    2.16603485567320   22.39190476173702
C         3.14983255363719    1.76693538248837   20.97541575343966
H         2.94714298047614    2.56627961863398   20.26279786557120
H         2.64003582950314    0.86650984644885   20.63519493357335
H         4.21959634758636    1.56446038383104   20.95850601213774
C         2.48888143354976    0.86525280418170   23.16874681036639
H         3.30635686285763    0.18361869012581   22.93217081081986
H         1.55821434900774    0.37589909304147   22.89072915900605
H         2.49788095404063    1.01612565002432   24.24183659805489
C         3.81287790283006    2.99106347713224   23.05296138482860
H         4.77234816853966    2.48009689064384   22.97781004169070
H         3.60126780381105    3.15087259207470   24.10818228873602
H         3.89753956843214    3.96457125540330   22.56613765568378
C         0.45320488294608    3.72805070545032   23.86896704326983
C         0.50259768498618    2.58918079739370   24.88620627733586
H         1.50536057771965    2.45464632144005   25.28039465196584
H         0.15036964895202    1.64936752419871   24.46797564994253
H        -0.14532810510182    2.84334485544369   25.72549529835453
C         1.18057614788328    4.94546941763238   24.43767177987572
H         0.72018962118925    5.25290450871653   25.37609726562631
H         1.12595782125299    5.77084973009708   23.73073315323634
H         2.22982386972683    4.73166536543759   24.62439933391827
C        -1.01706009820097    4.10471557606661   23.65926732971069
H        -1.62861948091884    3.24079312192167   23.40625573438431
H        -1.11119449461851    4.85143865014565   22.87499569229623
H        -1.41355052250793    4.53509355816743   24.57815327039850

