105
CSD_code = QOYHAP | q = 0 | S = 0 | Stoichiometry = C30H67ClN2P4Ru | MND = 6
Ru        3.52601366618514    5.01241641733444   21.80610122033013
H         2.28707825727085    5.16613842223205   22.64786295307860
Cl        5.48844288271273    4.72696320763890   20.44281272271369
N         4.36927851606614    6.36317727100327   22.58646281196940
N         4.95483907825951    7.21471076248845   23.01482633038088
P         2.34953054302202    6.40251946444242   20.29055987986683
P         2.42121799051192    3.29336260060419   20.81395900657061
P         3.96646210941834    3.39240726009173   23.48944336134607
P         4.07494264977520    1.17154028489094   17.20649487011633
C         1.24746744260936    5.27705891261693   19.28383556270756
H         0.33896500214911    5.80530192608210   18.98846339659514
H         1.81036970931412    5.04543690133785   18.37884809284254
C         0.90639028569947    3.96493466340453   19.99300326453907
H         0.49031683720705    3.23725758681924   19.28717736845062
H         0.16982689227270    4.13303935855300   20.78484948208493
C         1.76387003747951    2.21551948461462   22.16057444904658
H         0.98477088300470    2.78104214853425   22.67829603494770
H         1.32165736827783    1.29918861092937   21.75446751982677
C         2.91985459385623    1.89404923334892   23.10595584104570
H         3.57742929994174    1.17134364100498   22.61793595079370
H         2.55834081724277    1.44461530402388   24.03469160059096
C         3.02195288485205    2.00468155785917   19.64194730389343
H         3.82960658417273    1.47136487953625   20.15145735256797
H         2.19770307418110    1.30127784168021   19.46772055497254
C         3.52688795694019    2.57529110453007   18.32095936442335
H         4.34457669898293    3.27278479764096   18.50620337468143
H         2.71002715002657    3.10609102365963   17.83162005356736
C         3.31821467292710    7.35129548929871   18.94102117183356
C         3.90248071139759    6.33185219049007   17.95747619623167
H         4.72916637246827    6.79137597591796   17.41743958146449
H         3.17115654866820    6.00920258465891   17.21801163856363
H         4.30089230822576    5.47080147123040   18.48860149548018
C         2.54672585754241    8.38531068303611   18.12225747881726
H         2.21399147568706    9.22761156734948   18.72145460331159
H         1.69525669260114    7.93529906814607   17.61417937478267
H         3.21528698586211    8.77578593084155   17.35438596113642
C         4.49568865512251    8.02471114461242   19.65373518264854
H         5.09697190011819    8.57675384836813   18.93208783527101
H         5.13726609674734    7.27177272580429   20.10911800471210
H         4.17614349725302    8.71770599649276   20.42657960070136
C         1.07680583736905    7.61053914677451   21.06495712057222
C        -0.04656293065306    8.05911703334355   20.12219439609747
H        -0.79862875914455    7.27986036953784   20.01374136538558
H         0.29992781526707    8.34525193347262   19.13801632760260
H        -0.54034181104824    8.92410064422659   20.56430984714737
C         1.82720340867213    8.82528773036374   21.61513943383148
H         1.17371959284722    9.38952745617621   22.28038825513746
H         2.15436752254589    9.49599535565234   20.82548858334604
H         2.69391245517823    8.50292644457740   22.19284607435386
C         0.38662136131655    6.93373106925361   22.25342914980860
H         1.07815108430938    6.80008382306696   23.08058958475163
H        -0.02425530595221    5.96424435808341   21.97925168302224
H        -0.43284544846547    7.56441976693293   22.59722482248866
C         5.67667857490032    2.57349003960713   23.67334699211274
C         6.02980855638596    2.01573489943535   22.28963431432588
H         7.10666704011482    1.87015763746233   22.22021061521892
H         5.74587300174887    2.70917173162106   21.50188473227345
H         5.55882422696882    1.05120478108249   22.10661916453587
C         5.82211536466408    1.42130273702932   24.67032342912450
H         6.71097218895194    0.85060422499024   24.40142202704199
H         4.97209058473467    0.74353213490320   24.63271203895302
H         5.95753646372263    1.76408311803007   25.68962454026713
C         6.64902463550472    3.70554677738017   24.00463653424300
H         6.47400455589051    4.10362398239192   25.00268964803183
H         6.54079321767839    4.51491919806488   23.27997394149059
H         7.67702843370161    3.34848699165522   23.95917042088485
C         3.30195708712100    3.90390181776214   25.20866575179729
C         3.76749265729320    3.02704908328634   26.36908370457150
H         4.81445646905325    3.19968264061198   26.59854241892640
H         3.60868174654582    1.97049050073500   26.17064946910059
H         3.19114520768320    3.28815643876066   27.25690393008602
C         3.73950443858442    5.34577573939795   25.47324311687817
H         3.24038793033575    6.02474656278638   24.78446443219560
H         4.81407539284187    5.46931056769235   25.35660154475085
H         3.47070801295177    5.63581131957300   26.48844941331090
C         1.77062596050379    3.87071775944856   25.18649210895286
H         1.39058449355924    4.38791925352799   26.06654258300263
H         1.38399661027392    2.85444902028003   25.20658214716845
H         1.38593628744969    4.38335717316432   24.30799110729535
C         3.37193950270833    1.78763662769757   15.53617846360486
C         3.54465787777877    3.26251513330456   15.18241591211759
H         4.57958165576558    3.50683473078354   14.96965436357946
H         3.19921882714412    3.91880566958336   15.97607276755468
H         2.95870691874631    3.48295821906937   14.28910341107071
C         1.87501617436124    1.46627041298409   15.65047154334794
H         1.36655472795450    1.68691978159492   14.71243017552092
H         1.39687998894541    2.05009248555203   16.43536441805039
H         1.73113948157986    0.41058986511327   15.87664467399271
C         3.95194338632477    0.92519195144524   14.41541041054148
H         3.36644374329252    1.05202190867238   13.50468838300635
H         3.92918134699800   -0.12824068091155   14.69126909417219
H         4.97775168714325    1.20757856213811   14.19267315250996
C         5.96948784530679    1.39201889435255   17.23558329298137
C         6.56921328684046    0.16455400347906   16.54345832623821
H         7.65084978969027    0.15518869180214   16.67485057917917
H         6.36102155594213    0.15649415714339   15.47760853818452
H         6.16438346768612   -0.74887027318043   16.97756263555275
C         6.36079606648362    1.33299937060663   18.71566181388288
H         5.86369446526527    0.49913753890024   19.21268645770811
H         6.11703248605108    2.25782030624681   19.23054072484230
H         7.43577871554341    1.18249424085600   18.80607287748775
C         6.52674244347161    2.67060760424982   16.62310519497802
H         6.02609110752807    3.55216918614265   17.01652465919853
H         6.44325569890529    2.66245237569387   15.53892969421039
H         7.58413280510845    2.75355463141005   16.87372381745134

