47
CSD_code = QOYTAA | q = 0 | S = 0 | Stoichiometry = C18H23N3NiO2 | MND = 4
Ni        2.21576668219565   -0.10279243890827   -1.97354626200347
O         2.18696695642987   -0.17100047371665   -3.88169180531418
O         0.82124861478790    1.33633935641479   -3.07913441177764
N         1.04237330652026   -1.78065618017151   -1.70705960659882
N         2.17285102127280    0.01765416346749   -0.17524541639407
N         3.85334071389789    1.20660915243380   -1.78572637741050
C         1.00694311571178   -2.01073369391075   -0.26277873007796
C         0.42072108792250   -3.11905960424545    0.31144537692149
H        -0.07690167318828   -3.86052546341561   -0.29665610221966
C         0.48284694044122   -3.29823705204328    1.68533941783340
H         0.02441370762430   -4.16323935034700    2.13857101035074
C         1.16541498293723   -2.37591603141027    2.46245010113354
H         1.25452511166118   -2.53683542985180    3.52712683132256
C         1.74631977183889   -1.25759639612054    1.90177387739193
H         2.31312846679893   -0.58169820035797    2.52108078369170
C         1.64117939728873   -1.02511694764299    0.52051159613930
C         2.67449137356857    1.18580747735756    0.33282237430704
C         2.31574575171770    1.79227229894638    1.54293450558722
H         1.53635891593366    1.36123244037645    2.15026150279996
C         2.91608383770195    2.97461001386089    1.92981032814053
H         2.62451658380301    3.43343744821613    2.86336540403894
C         3.87127185160825    3.58307075720710    1.13455314615474
H         4.33923229419325    4.50301963972177    1.44911697531015
C         4.20276388127778    3.02360212802356   -0.09260052142086
H         4.92275079965678    3.52612975389679   -0.72081476407598
C         3.59546879305332    1.85576398625030   -0.50011573308459
C         1.63184955193910   -2.93448011337744   -2.40078877678043
H         2.58964491554341   -3.18041414374700   -1.94185663264250
H         1.79452567635274   -2.68240562127203   -3.44881023956391
H         0.97565211888898   -3.81026651557404   -2.34512677781062
C        -0.32083849048347   -1.54539193211412   -2.20180427369608
H        -0.97265069623710   -2.39555700252956   -1.97043461961075
H        -0.30052235373056   -1.40159395511053   -3.28185797128268
H        -0.72314026735360   -0.64515119347784   -1.73600251258537
C         5.10638088853708    0.44207925610250   -1.69545864536142
H         5.95740609479063    1.11363812780365   -1.52258299430890
H         5.26936098362820   -0.10544645916674   -2.62414244345294
H         5.04621265312875   -0.26658971283096   -0.86892159290684
C         3.95681450878903    2.18088961930652   -2.87552759417195
H         3.07114757889140    2.81507171264564   -2.87240421186241
H         4.01133402228730    1.65181219185625   -3.82710917846350
H         4.85255438633090    2.80406431977553   -2.77614053814157
C         1.32425758994101    0.74718224123407   -4.05184618536436
C         0.92434274633357    1.09736370427817   -5.47056668951131
H        -0.09368380914269    0.75554314304133   -5.64792979202698
H         1.59609604430957    0.62118730337694   -6.17961810275520
H         0.94373357060092    2.17692367574648   -5.59556372845865

