61
CSD_code = QOYVEF | q = 0 | S = 0 | Stoichiometry = C31H23NO4PRe | MND = 6
Re        1.39814185190739    1.50717892512273    5.28122313874016
P        -0.23253615637207    3.28364033997849    5.02675312536854
O         0.44155399536493    0.61772462799613    6.30003543136847
O         1.03133136305908    0.43029011874149    3.54005624266665
O         2.19232678232946    2.73537892376331    6.79801435092616
O         2.32969593497082    2.74632007581635    4.06974429787565
N         3.18412957439415    0.46514932671424    5.11098028054426
C         2.00916265614550   -0.39185433753999    3.25078101867159
C         1.91279973268084   -1.25000489208433    2.14609936516038
H         1.00503511747126   -1.22994589293630    1.56341397796817
C         2.95633358711502   -2.08721211789045    1.81935400733684
H         2.87016419771327   -2.74025808048574    0.96346492659578
C         4.12087255518205   -2.09482588404228    2.57722195965251
H         4.93644839964264   -2.74978893892134    2.31117867652572
C         4.24129477344111   -1.26418090547810    3.67249682651840
H         5.15746969832403   -1.28424324929573    4.24416683093934
C         3.19592786118171   -0.41424184314686    4.02980944752664
C         4.15844420044919    0.58726303973002    5.95339043497943
H         5.02853443938357   -0.05745705966121    5.83082595145275
C         4.26300334210600    1.48792194768990    7.05227052343978
C         5.43798984381677    1.37941827291775    7.82893664100650
H         6.16416060699290    0.62758034556560    7.55071464621444
C         5.68288436441878    2.18342290713774    8.90884855369854
H         6.59030427901504    2.07106653332348    9.48171232695921
C         4.74215350146211    3.15434372913135    9.26210466765899
H         4.92420856779678    3.79460737834593   10.11287643438245
C         3.59256375568276    3.29793402416327    8.53375573910700
H         2.85389932160412    4.04263404041097    8.79012192458647
C         3.30120224451599    2.48440306727218    7.41034570922990
C         0.58511075413629    4.29239538561043    3.78541116189931
C         0.05406077971326    5.40025857939535    3.14212156883171
H        -0.95621114873817    5.71506828700405    3.36731340625355
C         0.81768899154078    6.08499458254717    2.21464719329979
H         0.41390354484472    6.95010415864536    1.71144181579921
C         2.10729685877539    5.65151040318197    1.93018033610650
H         2.70097349530418    6.19038629560276    1.20588454403884
C         2.64196175353928    4.53938342512128    2.54488586319252
H         3.63819972162984    4.19705571120533    2.30730558116255
C         1.88839697120878    3.81956821287681    3.48573681882508
C        -0.45382715395477    4.27233534833816    6.52881696684253
C        -0.22113631789499    5.64017506136761    6.58862411398431
H         0.09663437038564    6.17506771958236    5.70462560649771
C        -0.38771491200270    6.30934927438007    7.79004641833947
H        -0.20837610787668    7.37364797021898    7.84044888451073
C        -0.77549462780138    5.61720899020863    8.92516880356702
H        -0.89902058427695    6.14446665300008    9.85991846579240
C        -0.99246348082896    4.24789194223453    8.86845043852633
H        -1.27917106002833    3.70938043109606    9.75948828914395
C        -0.82872493013067    3.57302243343190    7.67425020298460
H        -0.95958519319400    2.50050319017959    7.60785473276127
C        -1.89571779906620    2.93987030807276    4.40142216693443
C        -2.98341815125840    3.74332743207944    4.72322930068158
H        -2.85746913344896    4.57762250866546    5.39942818139853
C        -4.22480693927476    3.46025080499866    4.18091897279772
H        -5.07372418521215    4.08026176406255    4.42957965285997
C        -4.38015922643346    2.38278688588393    3.32399300341741
H        -5.35205694772662    2.16544111443917    2.90597935888044
C        -3.29495194187259    1.57898652853337    3.00892048199339
H        -3.42367343883491    0.73530310196092    2.34755383173668
C        -2.05072488460575    1.85242542136555    3.54649533562324
H        -1.19289946840546    1.22948565237597    3.33186104422738

