101
CSD_code = QOYWOS | q = 0 | S = 0 | Stoichiometry = C46H36F10N8Zn | MND = 4
Zn        2.65610200249331    8.37930312496661    7.12231239067658
F         4.04623653453747   10.53332754704429    7.59091509359662
F         6.09081228633097   12.33475747416713    7.38559888561313
F         6.96770246665931   13.12553698008049    4.91251593566731
F         5.78694895878649   12.09997350133503    2.67911301937410
F         3.79976851582764   10.31026384433884    2.86208790334313
N         2.89158677254072    9.45138420220635    5.49285957844090
N         2.19453132896023    8.99276493283459    4.46915732885363
N         1.17982273678700    7.56328514044008    5.96180232960968
N         0.12288953333240    6.98153708664888    6.36366994464170
C         3.85928670634166   10.36408594497214    5.24947001584109
C         4.48394073227708   10.93675690022235    6.37212081645931
C         5.51399808247483   11.84863132649366    6.28143741704012
C         5.95745224403972   12.25375732635547    5.02475044493549
C         5.35075924989918   11.72650909579466    3.88783883878572
C         4.32195256987807   10.80431843096423    3.99120288249675
C         1.25750906551507    8.11138145964472    4.71361155707467
C         0.41057263971530    7.71406086658716    3.58666375850156
C         0.45764296463470    8.47465015239422    2.41442562089057
H         1.11502045912396    9.32816275504925    2.37855703467491
C        -0.31744657836661    8.13500222551572    1.32777592096529
H        -0.27166125399084    8.73522696191413    0.43047339833635
C        -1.16267821046705    7.02890115851351    1.36610436735994
C        -1.19875539051292    6.26869199720473    2.52694500650820
H        -1.84169839243482    5.40126946987908    2.57676647725078
C        -0.42555128027221    6.60062263764080    3.62361337021764
H        -0.47627170697520    5.98679315049371    4.51032793628930
C        -2.01782994300551    6.68697839628522    0.18586054441732
H        -2.83880001723057    7.39944941373832    0.10196373820398
H        -2.43942892863332    5.68971034164223    0.28340721076561
H        -1.43963591753941    6.73812340284231   -0.73478572340930
C         0.15414400482558    6.31833295254715    7.56135577300418
C         1.13218207415704    5.36950735247502    7.91670968057408
C         1.04652417846680    4.76945636343966    9.16488563566251
H         1.79387179170203    4.03719935477660    9.43629475241601
C         0.04476704632908    5.08453855052920   10.06830467713707
C        -0.95145966256411    5.97546075238993    9.67066681529096
H        -1.75942974629614    6.20014758222535   10.35242854714825
C        -0.93166993552641    6.57213317841460    8.42954701840786
C         2.16548383512516    4.86689435770523    6.94940007091705
H         3.16656242396377    5.16794439120874    7.25429145355529
H         1.98457719286873    5.22002377253930    5.93646647412159
H         2.14622247664170    3.77716258569369    6.93887928254955
C        -0.00320577176550    4.46552602739704   11.42703247453381
H         0.84495855476392    3.80506225317274   11.58409840464658
H        -0.92443301002636    3.89725681162636   11.55169132850161
H         0.01238822119764    5.24291450600835   12.18884708313413
C        -2.00166241485027    7.52519333844152    7.99705249010782
H        -2.82059342861706    7.53486597809215    8.71126954583796
H        -2.37783756638353    7.23420866730030    7.01771190267511
H        -1.60917395598919    8.53696767218055    7.90295520959114
F         1.12633675547864   10.27828765274492    7.59115803939190
F        -0.94821898335525   11.79421227105629    8.42685760350295
F        -2.13784609829947   11.29231115484362   10.85502088231580
F        -1.17518323145189    9.25610871155172   12.40452506447712
F         0.88325334874882    7.78437395435712   11.63082330266425
N         2.11431995489564    8.23381467768107    9.03452608282389
N         2.67561636669305    7.37747709671557    9.86707022528446
N         4.66252995097481    6.95947926080947    8.65128542602207
N         4.44843715159341    7.49840403554648    7.51441413458345
C         1.11054236919894    8.98622281386805    9.56754509764514
C         0.57280892085238   10.03616670820375    8.80362816927756
C        -0.49409088020856   10.81358172293021    9.21259426110229
C        -1.09760912067871   10.56110635844090   10.44142095166560
C        -0.59980931696484    9.52526188084214   11.22721747934510
C         0.48033477432417    8.76299895353037   10.81230489654357
C         3.75247136016954    6.68775699381580    9.59062901744906
C         4.15651676711628    5.66941639705435   10.56682799727979
C         3.42542907011355    5.46792187622414   11.73565407725387
H         2.57334669864504    6.09568824636494   11.93112933143226
C         3.79801903099441    4.48344840061349   12.62709076630988
H         3.22670831866882    4.33914492832237   13.53310929865620
C         4.90237003490071    3.67224347705326   12.38226821954033
C         5.62622017020687    3.87542983095998   11.21362738339403
H         6.48654174823034    3.25519529634238   11.00526807914509
C         5.26094669743449    4.85869080978909   10.31511288060111
H         5.83117474157228    5.00884162320203    9.41007680679410
C         5.28323590033764    2.59710803421209   13.35267432082117
H         4.59952825960381    1.75229754258707   13.26309471024157
H         5.22386807157034    2.96450021693173   14.37523330825198
H         6.29247404914841    2.23991459824189   13.16403390286927
C         5.57251679599412    8.03441881331265    6.87315005815657
C         5.66976722480447    7.88604447814997    5.47860076705019
C         6.69513403527899    8.52732242151314    4.80282845992991
H         6.76219032485079    8.40929842595428    3.73092544708999
C         7.63209320885597    9.30598809322175    5.46608684915398
C         7.54935118419282    9.39844008264796    6.85038040342179
H         8.28228339931669    9.98906460050017    7.38071804396595
C         6.55135173606542    8.76916303833528    7.57430787589108
C         4.75228337930218    6.99318357001736    4.69882218502587
H         5.30465157104807    6.11554390897016    4.36191171820736
H         4.37677512587141    7.50728623597925    3.81543845544644
H         3.91095605532871    6.65140660283054    5.29468142701784
C         8.71991193162409   10.00912608131889    4.71913616577595
H         8.92570066976094   10.98230106850590    5.15932027267013
H         8.45254759307686   10.14125058273799    3.67372355456448
H         9.63921615694837    9.42457337609363    4.76288831738048
C         6.50752773239542    8.94534241136858    9.05968053591897
H         6.83191854125039    8.03581182802226    9.56307367835714
H         5.49849319770364    9.16904969157135    9.40302071895261
H         7.16066271701012    9.76206546727163    9.35703168613583

