70
CSD_code = QOYYUY | q = -1 | S = 0 | Stoichiometry = C24H30B10O4PW(1-) | MND = 9
W         4.14448954051647    5.49015655869387    7.39874113122387
C         4.78914920539098    3.86009649383309    5.73069417633878
H         5.21533397378432    2.98219415711365    6.23041394653361
B         3.13679302477431    4.10362069985252    5.74937062614078
H         2.42232158928220    3.23202494343093    6.14673945637530
B         2.90348099258039    6.05900140511054    5.45254001692108
B         4.50657259911577    6.70402535380906    5.37448127426309
H         4.80416897042644    7.83578203685770    5.58425716915448
B         5.68820817048517    5.26075567769417    5.61599257327674
H         6.81245259563008    5.25121771589264    6.01920080585208
B         3.94737698045909    3.49679263940013    4.27873168099482
H         3.74678025607800    2.35666055964345    4.02690511004000
B         2.73675117546764    4.81268621066560    4.17099425286686
H         1.68104644838849    4.58909928906873    3.67441238809916
B         3.64175982902235    6.31175771033085    3.83823444420335
H         3.22851292979415    7.18255445376246    3.15022175073433
B         5.36737518082229    5.93981110419215    4.01318870523852
H         6.20159284006745    6.55398311311239    3.43607684164576
B         5.52273435995799    4.18300272691044    4.20655048126351
H         6.46459947514565    3.52864592162557    3.91032859107017
B         4.23895619927695    4.82227816083479    3.16474290096167
H         4.24917994272249    4.63257619574812    1.99530384424336
C         5.74087438590586    6.58961120297398    7.76940487698267
O         6.57335954632936    7.33596595419744    8.08971236318189
C         3.44568063378550    6.94324636123315    8.49777447874117
O         3.02754202579451    7.82100293037165    9.13525846354039
C         2.36097010535183    4.77848897570751    7.85585573659622
O         1.30116679259976    4.53252370930208    8.26704828850675
P         5.03402751099893    4.05228129968956    9.16123169594927
C         5.58359986006978    4.87550196116589   10.70642881370380
C         4.66625728242550    5.75933663756151   11.27036122109721
H         3.70662390823848    5.88720457164185   10.78449668285384
C         4.97662632029124    6.45612006457146   12.42132778475720
H         4.25767041653701    7.13950678257491   12.84945290007679
C         6.21633950837077    6.28578678494927   13.01957500172062
H         6.46915627506387    6.84042814438867   13.91246782794788
C         7.12977025888054    5.40286229946198   12.47066251181661
H         8.09513195847461    5.26353356296423   12.93822347762849
C         6.81552756488125    4.69291726818694   11.32373858379761
H         7.53124631972053    3.99464368202763   10.91301050217870
C         6.54057087699648    3.12486297892678    8.69148659280749
C         6.56616220317619    1.74914857380846    8.48008686036469
H         5.69941126540204    1.14985938577729    8.72349817511472
C         7.69754325820026    1.14130006141776    7.96467684121100
H         7.70455839798071    0.07163319956134    7.80462447694187
C         8.81463463540842    1.89556844169109    7.64827464595294
H         9.69426738970489    1.41777080611655    7.24070986106106
C         8.79683716028960    3.26780714422568    7.84911096429772
H         9.66342867767621    3.86254508851505    7.59753892559071
C         7.66722931700289    3.87814287700074    8.35576665999658
H         7.64530020104774    4.94915498695743    8.50211923797839
C         4.02302807757005    2.69942675299827    9.88153274366490
C         3.24834763086194    1.94611053224456    9.00217139777549
H         3.27801375210064    2.17545014095455    7.94568998237070
C         2.44447129140673    0.92363932299259    9.46729628560330
H         1.84920582721718    0.34670301290969    8.77380969530984
C         2.39459706106522    0.64525188673841   10.82450902958134
H         1.75934714913711   -0.14806443447357   11.19310615806594
C         3.15787638893534    1.39075390992309   11.70660878127744
H         3.12066730318895    1.17759632648284   12.76636017946480
C         3.97066144924569    2.40979089114921   11.24119849400491
H         4.56547636157135    2.98274091095758   11.93832401727570
O         1.78024732301409    6.79185513729645    5.95673119897985
C         0.49233590644220    6.62667894934771    5.44667702419926
H         0.16894971209318    5.57683992668473    5.54616642293622
H         0.46782737247518    6.87991228235811    4.37326108625141
C        -0.46867993659258    7.52743720129822    6.21697004630442
H        -1.48562387633729    7.40943239616881    5.84673820290998
H        -0.16360957235545    8.56554277090891    6.11073479178127
H        -0.43638955683552    7.26842321853533    7.27236784238240

