81
CSD_code = QOYYOS | q = 0 | S = 0 | Stoichiometry = C31H34B10MoNO3P | MND = 9
Mo       -1.69106060078300   -2.09467801472743   13.25669109404849
C        -1.53372465722941   -2.77819064260668   10.97429068998036
H        -1.79490433304421   -1.94942852868254   10.31148462649115
B        -0.05946680543777   -2.81349878404140   11.74445440224626
H         0.78767700545109   -1.99783987744194   11.56560583016856
B        -0.28039309587162   -3.91726422548178   13.16945374590321
B        -1.95562904694157   -4.45074945253343   13.24100872495337
H        -2.50109793567041   -4.84363163960278   14.21930838565187
B        -2.73461207326077   -3.60086617961681   11.77877212637826
H        -3.87362774929950   -3.34858422311359   11.54415674170066
B        -0.32400514293247   -3.80442745866290   10.29958333016492
H         0.20134608311027   -3.45468754813855    9.30481833157133
B         0.49544631032427   -4.53735766242808   11.68685080939240
H         1.64931906845359   -4.78297590493038   11.68238719483409
B        -0.69495518993475   -5.54846854715747   12.54528689768888
H        -0.38780375903343   -6.51391792095364   13.14710801657415
B        -2.26345907428631   -5.33140519148810   11.74356555051951
H        -3.08353542318258   -6.17808085280088   11.72693433791352
B        -1.98053183031985   -4.31071026467666   10.31792830045634
H        -2.63425879735092   -4.30911653125884    9.33810888585170
B        -0.73589689993641   -5.46364097085843   10.79599431593377
H        -0.47382062724426   -6.39400899422665   10.12477423859322
C        -1.60209970739957   -1.90628374653239   15.16267879008887
O        -1.50892272032355   -1.82502994037593   16.31570792613417
C        -3.53392142815299   -2.46761197953595   13.75733055885848
O        -4.58048240715194   -2.63242578967815   14.21485739556248
C        -0.17061484699711   -0.93886354105567   13.61975595193599
O         0.68476340223827   -0.25621216266633   13.99538232747113
P        -2.73945150004611   -0.01888126317436   12.53920983223616
C        -3.77523444580753   -0.16202778219104   11.04196543451254
C        -4.97637375092719   -0.86230217451093   11.15556383674032
H        -5.30305043237188   -1.20721924400352   12.12770549506527
C        -5.75674344595296   -1.09699684341982   10.04006329897438
H        -6.68633386724610   -1.63726574408856   10.13921489099995
C        -5.34284754083996   -0.64682352007943    8.79592710471235
H        -5.94892708780931   -0.83686528758056    7.92300014187924
C        -4.15231848893832    0.04894503224354    8.67545585143659
H        -3.82857355941198    0.40540036210832    7.70855972795923
C        -3.36868752406980    0.29033474331728    9.79115482196662
H        -2.44343825013444    0.84033921627492    9.68749254464486
C        -3.88917855569108    0.81015811646213   13.69178874036443
C        -3.56379476523492    0.80096557600158   15.04455146793743
H        -2.65811824753805    0.30255758344895   15.36706936481326
C        -4.38180585812227    1.42743841964068   15.96667977674220
H        -4.12186111695843    1.40995047155425   17.01443462223710
C        -5.53402308069370    2.07112739288209   15.54524351269672
H        -6.17964706362777    2.55213039009650   16.26475075219463
C        -5.85366698072572    2.10198431108492   14.19799524509737
H        -6.74489293058657    2.61329701926771   13.86460632567384
C        -5.03427220505871    1.48164580268632   13.27157705555927
H        -5.28593923148395    1.52141384091508   12.22101723362963
C        -1.62789248102904    1.36309136219144   12.10153615231014
C        -1.83215676538839    2.66743965456020   12.53760506936769
H        -2.68381977457940    2.90449822625854   13.15872257870799
C        -0.94029455656660    3.66594876321264   12.18536792925655
H        -1.10407330224096    4.67468346404722   12.53505136981901
C         0.15677452512155    3.37667310803361   11.39261311617815
H         0.85100855987068    4.15812832767426   11.12212358618154
C         0.36559273405431    2.07956741573103   10.95179822660467
H         1.22155231654637    1.84721340970505   10.33545204322884
C        -0.51799512621326    1.07874229662978   11.30817200922926
H        -0.34313323760253    0.06456381972855   10.97233574405243
C         0.60783575357237   -3.87847981645183   14.32938723673930
N         1.32886071342233   -3.85309314363811   15.26353003479136
C         2.22213888291184   -4.05827665410230   16.25431971951152
C         2.83735179710596   -5.31594845733990   16.36183375967640
C         3.75223133494263   -5.50520375170554   17.38377666655185
H         4.23735417501388   -6.46455118922076   17.48643473922321
C         4.05080152666092   -4.48246978474834   18.26889472493524
H         4.76758250366261   -4.64875642684910   19.05879451217891
C         3.43562520034942   -3.24828412210624   18.14563969757781
H         3.67425915778873   -2.45625898250198   18.83987513049779
C         2.51179173717710   -3.01154755055504   17.14081467905438
C         2.49398843701731   -6.39938087650296   15.38898934600062
H         3.06699535307580   -7.29807212280905   15.59913038921017
H         2.70082735150720   -6.07855975469532   14.36835245714589
H         1.43212001823499   -6.63809487253919   15.44227465007716
C         1.82817123964438   -1.69147646977139   16.98738572640156
H         2.19803224194350   -0.97828314123270   17.71884457928376
H         0.75256630085728   -1.80412554712090   17.12282895544437
H         1.98945559457636   -1.28613702760379   15.98870856545899

