67
CSD_code = QOYZUZ | q = 1 | S = 0 | Stoichiometry = C29H33ClNP2Pd(1+) | MND = 4
Pd        2.04265433792965    6.75940495632215    9.74016168309668
Cl        1.27596016501003    9.11870963401682    8.45611041555793
P         3.86231821878119    6.68945572102008    8.20899115376464
P         3.15241592624259    8.37946376686179   10.81697166121016
N         0.84664011831109    5.17478868414339    8.94761336448845
C         5.03931311862253    5.27971370119547    8.19623430214794
C         3.67869873847627    7.03654458653188    6.41510356146729
C         4.97236396445281    8.05523073325697    8.72329216648901
C         6.11872527546215    8.38291169025821    8.00633198700318
C         6.92627366640476    9.42925025001637    8.41160052607733
C         6.59597395556494   10.17008453005286    9.53635252264556
C         5.46258056711329    9.85331913804669   10.26039151023925
C         4.65466690878541    8.79159910579187    9.86549222681718
C         3.75473523269786    8.13323422728635   12.51847245079110
C         2.31122811799068    9.99697297793264   10.78589694548489
C         1.49123642476734   10.29651824980907    9.69560233956451
C         0.83477103546216   11.51107628076343    9.60145638822863
C         0.99240491755770   12.44738197884363   10.60979521679587
C         1.79245559697410   12.16462405170617   11.70495341509463
C         2.44442911797122   10.94775926975012   11.79449384148793
C         0.58022567783308    6.72664704518370   11.15132470793138
C         0.12740597350739    7.75532635334336   11.99346156508417
C        -0.94080235709414    7.55512583223617   12.82540898052778
C        -1.59971302161796    6.31269645238680   12.87864984640307
C        -2.68461542823873    6.09624428093138   13.75439075864269
C        -3.30899094196747    4.88344099948573   13.80795036483432
C        -2.86786728722894    3.83397856544233   12.98836660936618
C        -1.82245443908048    4.01246853606118   12.12612145222728
C        -1.15835416030531    5.25643268583738   12.03577653073555
C        -0.07166206915631    5.50904113865514   11.15842408292769
C         0.46149407800242    4.46996281367560   10.19728661245179
C         1.67829982754946    3.80637664009811   10.85615527874975
C         1.44075372275719    4.23819688290999    7.99418205998978
C        -0.33219144290812    5.77625779547384    8.31170212111665
H         5.24718674315173    4.97292370418247    9.22156286467361
H         5.97109507796904    5.56774257511464    7.71233952463726
H         4.60214339220023    4.44115011899861    7.65601675907637
H         3.16751818798775    7.98978857824752    6.28227906551825
H         4.64930665302249    7.07366319709751    5.92449941894558
H         3.08223822966970    6.25138404286975    5.95163580310259
H         6.38853742769651    7.82249866258281    7.12326033891233
H         7.81261304597754    9.67275727716511    7.84629186000969
H         7.22097539940242   10.99368176924035    9.84480705979347
H         5.19625675076176   10.43943820307264   11.12845735488075
H         4.25993647113253    7.16583205850256   12.54832819853186
H         4.45745956508434    8.90898880134226   12.81886767852090
H         2.90301192020618    8.10180410799150   13.19844775929800
H         0.20567294607675   11.71668779302772    8.75031283586941
H         0.48276306024840   13.39527555962335   10.54130284409690
H         1.90612989233519   12.89137033990046   12.49413732166679
H         3.04890930254137   10.73064038670589   12.66212796226037
H         0.61029696460297    8.72644282188026   11.98967117268002
H        -1.28787001769841    8.35509811767828   13.46358644406074
H        -3.00771229228040    6.91180996637083   14.38453789573532
H        -4.13810893224207    4.72176057589477   14.47938767531027
H        -3.36127968274874    2.87536363472378   13.04452101820157
H        -1.49896171642473    3.18112740115475   11.51903698290290
H        -0.28917025979932    3.70655203022355    9.95074911459048
H         1.41381429336745    3.51749765607439   11.87101928816738
H         2.50708867087240    4.53335153552292   10.91048633816547
H         2.00413823723524    2.91443095741842   10.32665735295386
H         2.38925615135936    3.85709726203604    8.36932831489042
H         1.61587923331735    4.74416808156892    7.04386835793528
H         0.76607758737552    3.39246801481079    7.81074119942228
H        -0.01834589167010    6.36849199571927    7.44778594841401
H        -1.02708829833396    4.99997572599423    7.96760952918205
H        -0.86114164898622    6.42529749194243    9.01212006815345

