53
CSD_code = QOZCAL | q = 0 | S = 0 | Stoichiometry = C21H16AuF6N3O4S2 | MND = 2
Au        9.52896438275888    3.85100180417433   10.68871507803227
S         8.68271577116774    6.13731822808793   12.65583962831894
S         8.54915414915435    3.65890905356282   13.75519333131392
F         6.94349816408085    6.12150694945363   10.67239458797444
F         6.66043666288607    7.75829921423945   12.04148765756400
F         5.98607814637545    5.78463347137604   12.56629851460441
F        10.86319684156493    4.85568046057637   14.34555468148556
F         9.47028530302842    4.87023663625590   16.00585831940305
F        10.47738123352049    3.06469193787305   15.45664237298079
O         9.52290870912631    6.83619887873496   11.73870892902294
O         8.67332261316368    6.49467399803516   14.02922386632595
O         8.85207100015472    2.30195865934864   13.43292766564681
O         7.28950794945342    3.95278832502539   14.34073681558185
N         9.70986355543530    2.03721482597642    8.32511844800019
N        10.98954950321210    3.74307188392284    8.09330486223389
N         8.85763876581231    4.56474488897169   12.46633930965550
C        10.10622034836440    3.17141390507921    8.92753154822138
C        10.35590602935002    1.88764710532927    7.13024079180988
C        11.15997647983830    2.96724539027773    6.98156623302310
C         8.76554473078797    1.06760652714947    8.87425252627652
C         7.63597065487395    1.71360500474865    9.63785778273918
C         7.36560386681477    1.31738737670345   10.94173064402734
C         6.36407723277142    1.92890552602869   11.67123509426765
C         5.63072486145059    2.95945972819337   11.10325929026591
C         5.87752053872240    3.34472506608096    9.80211001466828
C         6.85667256732381    2.70884162161389    9.03417099208087
C         7.00318384604947    3.09271496378428    7.64274845019300
C         7.28310775578428    2.27224652653285    6.62016472623986
C         7.50003810030313    0.83815519242373    6.70532021087714
C         7.02162381683297    0.02882922591690    5.67110520244258
C         7.13526500988324   -1.34448513798262    5.72721038348242
C         7.74641709862462   -1.94369101470880    6.81831081366285
C         8.26171768084242   -1.15693560903071    7.83117139578803
C         8.15698139452710    0.22654903532044    7.78145197168245
C        11.66877282345127    4.98934516190698    8.31607439883714
C         6.95571840167492    6.46260234343881   11.96892698424548
C         9.90444762272553    4.17208267893605   14.97423435786875
H        10.20392969016025    1.04380193159698    6.49057485303599
H        11.82510923001101    3.23644527010861    6.18762496771603
H         9.32494523935035    0.42082682260645    9.56225312157528
H         7.96202623291078    0.54660145958887   11.40410185134392
H         6.17848400308534    1.62465517014756   12.68790438310202
H         4.86838113447686    3.45802766070647   11.68104202608048
H         5.29359882229692    4.13246733766698    9.34969824488229
H         6.75009975184193    4.12174086951189    7.42300645755073
H         7.24229263949674    2.66965554629753    5.61367242569815
H         6.53217873117914    0.49568735180242    4.82881380215611
H         6.74667436296352   -1.95131269381712    4.92346509120889
H         7.83539498528941   -3.01781772349713    6.87019128466623
H         8.75985299282018   -1.61948418555645    8.67082726794851
H        12.73844707970238    4.81829008327045    8.44734609820419
H        11.26698275056822    5.45912359300811    9.21274909926618
H        11.51953874195996    5.65121167321531    7.46261114462295

