117
CSD_code = QOZDAM | q = 1 | S = 0 | Stoichiometry = C56H56AuN4(1+) | MND = 2
Au        6.83647623636346   10.03775318383923   14.48942182872755
N         6.12830032738312   12.12131152111178   12.44301650911859
N         8.26154790925714   11.85458796323623   12.38299175819806
N         5.64315937857654    9.20383932089647   17.09604830485267
N         6.42226784817703    7.42778611710690   16.16692998499577
C         7.13273464615803   11.39205968528762   12.96505971263261
C         6.61625180847168   13.04202162979285   11.56077046435933
C         7.95593756533378   12.87027666735891   11.51971752747199
C         4.71021308248136   12.05664759823147   12.77172044845043
C         4.21025198784973   10.68708982938759   13.14194514676232
C         3.45603152951047   10.51921733471916   14.29705106932739
C         2.97818192501146    9.27524930746907   14.65968567815095
C         3.24717962445162    8.17822488466112   13.85584268051392
C         3.95729777960467    8.34046798268704   12.68467699370679
C         4.42563234928764    9.59593092725573   12.29107378528956
C         5.07009825567949    9.72720530027269   10.99639286608555
C         4.88767496274675   10.74174199889453   10.14046606989434
C         4.02437047243885   11.89104450850171   10.35326211995943
C         3.30075938819358   12.39162897875111    9.26790023654305
C         2.40806363249175   13.43135635193653    9.42542961647335
C         2.23016613345133   14.00826146449617   10.67383648729454
C         2.96858376199648   13.55331745740061   11.75019344576918
C         3.87071343500918   12.50947978932331   11.60071982246477
C         9.62033631492945   11.35254464918587   12.62457462456340
C        10.00059634470856   11.59467643870166   14.08834441454599
C        11.40256537250756   11.04902635483802   14.35613503211542
C        12.41172021940531   11.76784267770261   13.46397085338671
C        12.04166527715314   11.52758044257698   12.00238562299772
C        10.63674049094184   12.07310656270367   11.73270601373773
C         9.67183948765737    9.85514180268473   12.30924138459649
C        11.07358392796680    9.31505065837217   12.59275583669365
C        12.08286408391870   10.03203537547815   11.69903750070022
C        11.43154208879172    9.55109074324259   14.05936754678144
C         6.35767205976373    8.77197242568642   16.04011898524564
C         5.23943277503113    8.14982016925042   17.86279529994162
C         5.73397916083118    7.03444214993373   17.28132166531004
C         5.28677980985960   10.58052178410914   17.40940235089246
C         6.34280601371063   11.58818005398510   17.04086466487200
C         5.99514437793167   12.71633456747883   16.30708551758011
C         6.93800071851603   13.67089198675764   15.98105601075977
C         8.25303868389957   13.49997381986990   16.38575468646161
C         8.60713094133084   12.39220365362381   17.12704696575694
C         7.65744094487598   11.43769260906473   17.49799988166484
C         8.06045680705230   10.36307060396310   18.38822428282004
C         7.33637405731456    9.89739849779475   19.41471801676341
C         6.01931627139694   10.36720611389877   19.81110122102082
C         5.72340424091340   10.45393001913598   21.17374635775902
C         4.51614196761021   10.95896692920365   21.60995822192838
C         3.56598628511970   11.37435025433290   20.68938161296972
C         3.82570380829609   11.25682297808527   19.33683136286158
C         5.03663046518679   10.74866295728178   18.88846708718115
C         7.15329778804885    6.51569861316074   15.27805683599281
C         6.52030100227595    6.53430382303730   13.88374398068725
C         7.29944353417498    5.60847706474036   12.94965221349267
C         7.25478050263183    4.18036068553135   13.48781392766047
C         7.88891601833287    4.15332732289748   14.87636657029858
C         7.10885889518516    5.08030714697154   15.81226493430650
C         8.61657784325539    6.96023576508621   15.19545089290593
C         9.38505845923121    6.03736613255355   14.24967950548656
C         9.34312907010453    4.60977556086202   14.78985904726680
C         8.75067885394793    6.07585183613301   12.86010977701017
H         5.99322582480539   13.73867630255638   11.04076415977560
H         8.67763600671677   13.40091234929527   10.93962026844179
H         4.54195059315551   12.73806171865802   13.61662599370072
H         3.23398650793045   11.38221696185816   14.90900085455099
H         2.39647104678981    9.15757362582790   15.56165791351214
H         2.87864638156534    7.20276120726304   14.13528636809373
H         4.12635256059405    7.49579691217810   12.03327906108841
H         5.64252505414485    8.86803731311131   10.67109804484894
H         5.32240060661491   10.66881576302174    9.15194109784694
H         3.42951590416589   11.93241934523410    8.29903771526156
H         1.84872539286646   13.79458105717554    8.57737511415453
H         1.53304310058457   14.82123293025184   10.80313823196238
H         2.85169655018867   14.02099861062514   12.71746533285910
H         9.96693762752688   12.66595960534974   14.29671706064971
H         9.27421670998712   11.10541386960040   14.74181775766852
H        11.65429139911686   11.21983289962672   15.40761009882322
H        12.40877166476539   12.83794393583765   13.68094768289632
H        13.41655758906280   11.39093299167061   13.65908431454074
H        12.75053585014071   12.05209164202298   11.35422450384257
H        10.38915846186062   11.91813970369508   10.68026192134166
H        10.63040205004009   13.14428743232771   11.94462982245934
H         9.41175775975186    9.69486110229850   11.25989775877744
H         8.93391403591970    9.33638008094513   12.92359170804991
H        11.09213812439268    8.24174301338922   12.37855907978761
H        13.08540601864485    9.64387575872817   11.88330665028490
H        11.84459559357352    9.85524254454271   10.64828073089660
H        12.42711899412690    9.15354735033591   14.26247925397093
H        10.72387227385203    9.03142132950788   14.70792792242956
H         4.64151292810123    8.26200120060421   18.74233889269842
H         5.63341156034939    6.01957667990821   17.59581202627262
H         4.36539699738643   10.81292595601779   16.86102810490340
H         4.96736155858280   12.84847563870918   16.00132361337254
H         6.65251745410973   14.54510049481134   15.41567801288223
H         8.99529571644974   14.24373925832304   16.13869943544807
H         9.62532291502019   12.27363622690311   17.46707392576855
H         9.07802801279304   10.01433025380758   18.26792466343197
H         7.79288005367369    9.18385676479777   20.08852375380947
H         6.46917741433053   10.14286915788346   21.89015480450856
H         4.31211878228810   11.03024658869248   22.66697348800072
H         2.61975535606081   11.76921242871462   21.02468782615123
H         3.07515729635555   11.55382722537445   18.61811803575539
H         6.52443672165439    7.55558416378008   13.49505122224682
H         5.48106634984932    6.20753319398283   13.95688704464898
H         6.84257152871593    5.64054202793931   11.95521869051611
H         6.22176663423347    3.83035340629658   13.53990107687323
H         7.79921310509729    3.51330831094504   12.81815874488708
H         7.84797946204033    3.13597982298646   15.27770530677921
H         6.07563488703757    4.73136403742118   15.86777305089431
H         7.55151871975606    5.03773922915790   16.80981742996744
H         9.06193766384660    6.93157974896387   16.19299713036214
H         8.65819794878082    7.99010620380118   14.83736906027675
H        10.42408874275225    6.37654957432166   14.18861417300989
H         9.90161272311835    3.94492746562601   14.12969857153467
H         9.80870149213700    4.56838983463108   15.77659627450812
H         8.78905742525281    7.08871958862099   12.45613458875198
H         9.30700186359214    5.42392712750621   12.18477136514554

