83
CSD_code = QOZGAO | q = 0 | S = 0 | Stoichiometry = C43H36AgClN2 | MND = 2
Ag       -0.00065405207576    8.05884655793864    4.07746025761416
Cl        0.00068660155008    5.79268107543534    4.07797813989989
N        -0.08463110069280   11.01842737630204    5.14487832434416
C         0.00008228794230   10.19517858327634    4.07750292698543
C        -0.04745839870095   12.33127052223766    4.75203352489415
H        -0.09751077725043   13.14310447710761    5.44771259364188
C        -0.12485249102710   10.55921950235597    6.48357456346370
C        -1.12008907381635    9.66007046561669    6.88029872736376
C        -1.09081767350043    9.14984023228904    8.17530141460358
H        -1.85550537745114    8.44911285805682    8.47450763600319
C        -0.12076888426077    9.55150982757871    9.07275821236902
H        -0.10807469214945    9.14741816038618   10.07361692380229
C         0.82282114889445   10.48593973246900    8.69150859044195
H         1.57710456918936   10.81576118103125    9.39031105298099
C         0.84268602006056   10.99239905899988    7.39570131951322
C        -2.25888700767537    9.29661419904207    6.01350068511875
C        -2.57118240170817    7.95755644654153    5.77799144813660
H        -1.94916418590671    7.17861130834192    6.19867590837409
C        -3.69442648079302    7.62034050776163    5.04211820966866
H        -3.91471551492036    6.57869092354967    4.86182858525021
C        -4.54485656445612    8.60185164431090    4.54985176691506
C        -4.24023522542971    9.93332618594794    4.80742421039558
H        -4.91023758851029   10.70291594179377    4.45138381178990
C        -3.10700146112351   10.28250728918618    5.51718904050928
H        -2.89156750812125   11.32480187525676    5.71236470337096
C        -5.77072229064878    8.25194316924721    3.76331380849330
H        -5.94004584298889    7.17864258674562    3.76378150434315
H        -5.66062795986561    8.58322040411806    2.73064916162550
H        -6.64731524430592    8.74676364353048    4.17968148227243
C         1.87441186405620   11.98493177184086    7.04175114539825
C         2.72807094205696   11.80653257640419    5.95768080098988
H         2.65126800045319   10.91326233102908    5.35344919715109
C         3.69124579649373   12.75399447687819    5.67128768747972
H         4.35021667901750   12.60854118963251    4.82807168942778
C         3.83454034377452   13.89657676450643    6.45031172650161
C         2.98381418689951   14.06754795940345    7.53389217632981
H         3.07775088188808   14.94685507481622    8.15527798714722
C         2.01819127767785   13.12394071995663    7.82850537195555
H         1.35649453503724   13.27361685424941    8.67005903511113
C         4.89948442242646   14.90098663455799    6.13251001405051
H         4.75619832583766   15.81556763217047    6.70237965233184
H         4.89607667947103   15.14284404654019    5.07108605065278
H         5.88111182916477   14.49493830713026    6.37774111087992
N         0.08471719168610   11.01842124255662    3.01011610516879
C         0.04751122197460   12.33126520281813    3.40294631268145
H         0.09748581100047   13.14309176799035    2.70725055843004
C         0.12485503552758   10.55919841444484    1.67142153922288
C         1.12005187065174    9.66001724140780    1.27468075142755
C         1.09071124027922    9.14973107792040   -0.02029120574275
H         1.85542779081068    8.44904829636541   -0.31952980745686
C         0.12065076658573    9.55140973408359   -0.91773042084896
H         0.10796657656999    9.14735081451590   -1.91860294118754
C        -0.82290407749391   10.48587255693933   -0.53647709546989
H        -1.57718905988720   10.81571478323689   -1.23527211861382
C        -0.84272593830344   10.99235714674142    0.75932359137678
C         2.25887978607777    9.29656210986763    2.14141242001097
C         2.57116913529610    7.95751464434005    2.37698893544420
H         1.94927555473702    7.17857454544936    1.95613558909473
C         3.69436812799790    7.62030215078180    3.11293100668742
H         3.91488704015290    6.57866422662305    3.29290344039046
C         4.54488375041972    8.60183375535292    3.60507724081193
C         4.24036951846896    9.93333828462849    3.34731690695395
H         4.91005730378994   10.70293627319891    3.70386524274506
C         3.10707973261268   10.28249287601642    2.63757667091958
H         2.89139551888965   11.32479899769384    2.44281292563144
C         5.77074949493630    8.25197133688806    4.39156962980487
H         5.94002672459732    7.17866697535555    4.39120068132814
H         5.66071863772484    8.58336660559991    5.42419641519837
H         6.64734699652514    8.74670012119107    3.97510758183011
C        -1.87443896905634   11.98490510776172    1.11327557390374
C        -2.72809109606651   11.80652435212666    2.19735302730843
H        -2.65129724522365   10.91325318504652    2.80158680501513
C        -3.69124058281864   12.75400835675682    2.48376155420235
H        -4.35018998284667   12.60858166073615    3.32699803682999
C        -3.83451552464270   13.89659638717395    1.70474128648807
C        -2.98380502911911   14.06754361315044    0.62114482353607
H        -3.07773489506558   14.94684997721662   -0.00024320152331
C        -2.01821239415629   13.12391143096825    0.32651501261377
H        -1.35653354164032   13.27356486371275   -0.51505754096058
C        -4.89942599062727   14.90103670917203    2.02256322341892
H        -4.75611814524982   15.81562141400268    1.45270439903748
H        -4.89600400219518   15.14288000050754    3.08399025855174
H        -5.88106694741322   14.49501968411079    1.77733460614669

