79
CSD_code = QOZHIW | q = 1 | S = 0 | Stoichiometry = C32H34BN6O3S2Zn(1+) | MND = 4
Zn        6.07476012712243    2.79538051033474    3.60811222977178
N         4.39027606673771    2.09521179425929    0.78519705556067
N         3.77166348017269    0.05723383634813    1.29823248143306
N         4.01110243607612    4.37331619636359    1.82126008333206
N         3.22893597464253    5.71027170277291    3.37495927064397
N         6.34129229967414    3.63033330571502    0.93621504408625
N         6.95038868432066    2.82246344862269    1.83232641655587
S         4.07469065035114    1.56648588334310    3.48568304994721
S         5.82212188634143    5.13488556867109    3.75837006996548
O         1.36637361092691   -1.05167477127753    0.88581970318861
O         1.37293792797480    5.20113806512263    5.25355795973587
O         7.17722077885975    2.18111639345258    5.39683752489280
H         6.66520489048271    1.82228869782598    6.13494697180126
B         4.82717270145581    3.58963626138982    0.75486130630624
H         4.53644631352077    4.03201756714737   -0.30348681311045
C         4.12028719220655    1.26008023277350    1.80002076706334
C         3.82533413222412    0.12970211264103   -0.06707762357757
H         3.58821358484922   -0.70792972664034   -0.68778621222522
C         4.21544581546660    1.38686869712372   -0.37617039440037
H         4.38308304421492    1.83860788629992   -1.33064858885649
C         3.40471686561755   -1.09177465084924    2.04037975271818
C         2.14574549445430   -1.66816801385529    1.80891786656815
C         1.79767832342071   -2.80438570809437    2.53177841547117
H         0.83854070072611   -3.27228626176595    2.38222958470228
C         2.67866507299750   -3.34411178918085    3.45285644311059
H         2.38866795471639   -4.22646989386423    4.00161358753230
C         3.91806133229172   -2.76992773671667    3.67200503733111
H         4.60022249289349   -3.19972013905125    4.38733510975368
C         4.28076123629209   -1.64045689555530    2.96098865072307
H         5.24360752262002   -1.17729961662762    3.11342506976126
C         0.07842850842508   -1.57177863243098    0.63145050982315
H        -0.35512971502333   -0.91749090072140   -0.12252678874603
H        -0.54411713619119   -1.55294501888368    1.52988090800300
H         0.13008788458002   -2.59140516262883    0.23995070570802
C         4.32512203750408    5.05779619014891    2.93274100412051
C         2.18697698132559    5.40911334296411    2.53999882046925
H         1.20624729933281    5.80544134448103    2.69408606352610
C         2.67432987167009    4.58826012931115    1.58426463280254
H         2.18348804179532    4.14021465551203    0.74625403064170
C         3.15382573207258    6.54094040951460    4.51714012053518
C         2.17666913171195    6.26965066229950    5.48939470521783
C         2.11018464196943    7.09540225618808    6.60604440853787
H         1.37338138915778    6.91643195066777    7.37194460140606
C         2.99140705941207    8.15400309375431    6.74818963198200
H         2.92148905413429    8.78088931049408    7.62345936159799
C         3.95158213256882    8.41167482567151    5.78686104242198
H         4.63373067637835    9.23798173282006    5.90216144093932
C         4.02979263418562    7.60292366942072    4.66713869124877
H         4.76771195046453    7.78923114246757    3.90299446996788
C         0.39707090041873    4.86253303465488    6.21487587622962
H        -0.10007414266893    3.97696900219924    5.82334929652178
H        -0.33532958401736    5.66496029412061    6.34039584562476
H         0.85205515625098    4.62551014510142    7.18045493529887
C         6.95458538817257    5.21204960307343   -0.89705930901234
H         6.28103067142914    5.98692719293492   -0.53684972512707
H         6.47206402903587    4.70674012167565   -1.73230800516538
H         7.87121010044080    5.67385173480225   -1.25279206508026
C         7.27126406962372    4.25065756424412    0.18617423279860
C         8.51766688697819    3.83620551152702    0.62428548403648
H         9.46723697296680    4.13429299314980    0.23152075434942
C         8.27340106691254    2.93962535327175    1.66596882464306
C         9.19893996219916    2.19434767765281    2.50582702233250
C        10.47323049875510    2.69127007960542    2.77415843716867
H        10.77656176239869    3.63680881052105    2.35134979258388
C        11.33773711632035    1.98535156816780    3.59004447036149
H        12.32283997745107    2.37670105427254    3.79308345340080
C        10.94459642110968    0.77713366406395    4.14265791105056
H        11.62320729822282    0.22674324732053    4.77615287723652
C         9.68271546188058    0.27177521657436    3.87305988909113
H         9.38010346838648   -0.67620179507612    4.29224272573125
C         8.81277195530834    0.97351663847593    3.06003090047964
H         7.84027471626368    0.56293265820855    2.82189507891608
C         8.26543531035039    2.92888315258592    5.95846356603765
H         8.92020264529392    2.23035545370480    6.49160383061975
H         8.81117063319574    3.34297300507566    5.10966107729477
C         7.78224010057707    4.03355625721558    6.88128475764639
H         8.63348745859284    4.58797266703596    7.26385269592479
H         7.23206103475166    3.62023270202257    7.72479148754322
H         7.13641589464612    4.72175743414326    6.33953570149397

