43
CSD_code = QOZMUP | q = 0 | S = 0 | Stoichiometry = C16H17BrMoN4O3S | MND = 6
Mo        6.57870958984426    2.15108940817043    5.26923163069852
Br        1.87717815724689    2.53974511526029   -0.49960627588217
S        10.18737724491908   -0.47511948690538    4.39108990045719
O         4.76528216867092    2.22744407933128    4.74613376193549
N         8.27131843719656    1.04440810735036    5.47799194466831
O         6.49292432625999    2.52073504557682    6.86951668207373
N         5.61157601923235    0.03606877816963    6.07026849307294
N         6.69335064873164    0.88827775002038    3.52468756673708
C         8.63689735932255    0.33848978302241    4.41466074442768
O         7.21806474762478    3.36397032081619    4.35317314594593
C         6.02617099415093   -1.21584789995906    5.89910315755895
C         4.16781163780974    2.31066071854393    3.58448376339715
N         7.85575089670991    0.20541500390831    3.37429155318888
C         5.94730226171859    0.97106054948391    2.47276434226123
C         4.70109740828620    1.67363652593170    2.43079665929954
C         2.95671362306659    3.01385880314763    3.46891180627773
C         2.28536296890383    3.08907354495870    2.26962420929379
C         4.54764523434783   -2.04773450952482    7.57357240065930
C         5.52799880290933   -2.28673941463496    6.62393117163015
C        10.19872817394317   -1.21392835813534    2.72249379478847
C         3.99886190314411    1.75521957037942    1.22108766867530
C         2.81398846496584    2.45083910828504    1.15225735370627
C         4.66626146563760    0.26220003243669    6.97836068324215
C         4.10719856177112   -0.74563024553038    7.74882276864902
C         9.33418234862375   -2.46028057824439    2.63440036753704
C         9.44800036337038   -3.09928833274579    1.25534269921563
H         4.39918406118885    1.27335190943170    0.34123339125031
H         1.35811879425015    3.63592692416761    2.19225000407426
H         2.57158406322586    3.50468249697894    4.35126711921584
H         6.30463312808791    0.50720776648321    1.55216174760669
H         9.85307605338590   -0.44187926004249    2.03829105939926
H        11.24538279063635   -1.44617377251389    2.52723133500504
H         9.64780889176461   -3.17334571996929    3.39969639469106
H         8.29716371628821   -2.17972054926500    2.82538600253271
H         8.81695029362334   -3.98229163844222    1.19508788649001
H         9.13522071430571   -2.39898029580739    0.48477014770450
H        10.47470285952461   -3.39616438538215    1.05390729469493
H         8.96412336333481    1.07273152688952    6.22492484899798
H         4.36446099067616    1.29590164333387    7.09544605915382
H         3.34564797928310   -0.50955914579757    8.47492450582752
H         4.13831858336541   -2.85598680401938    8.16111357857314
H         5.90394563727965   -3.28211138547257    6.44703585612034
H         6.78952427137096   -1.37961272968289    5.14778077514512

