52
CSD_code = QOZRUT | q = 1 | S = 0 | Stoichiometry = C22H24N4ORh(1+) | MND = 4
Rh        7.19380692185824   10.06641243941031   10.15595527335819
C         8.61751321255560    9.68657159193836    9.06579253230995
O         9.51477408744301    9.58123412458922    8.35790211442466
N         8.06270400831084    9.62202139312885   11.99455390043572
N         5.99149997901138   10.81310868062183    8.65493281032914
N         5.51833799964375    8.39547483651227   11.15735976884582
N         5.81367136167386   11.17112363451966   11.33543386613512
C         6.59287148660645   11.47125216295814   12.54038236772643
H         5.95307745550055   11.82360739119436   13.36090215497149
H         7.31454436985228   12.26451596590700   12.30738298351145
C         7.38897543878604   10.26582623936281   12.96710813021346
C         7.45401267693497    9.89030560918735   14.29696622939474
H         6.88987699013149   10.43101097736671   15.03968237855356
C         8.25775789291287    8.81954242185363   14.65370235575894
H         8.32473713551814    8.49709635794719   15.68042574661496
C         8.98389232782629    8.19141221634513   13.66148232535581
H         9.64346827046054    7.37385384317853   13.90317604950902
C         8.87364596595040    8.61166147298272   12.33823956704709
C         9.71065776744522    7.95804627851739   11.29075951272377
H         9.09985034900044    7.60039981180858   10.46627118072215
H        10.26625904064111    7.12446561702555   11.70942352011066
H        10.42142598468876    8.68152575729234   10.89278906111787
C         5.58294405345297   12.34670803827675   10.48463592836048
H         6.49568088024727   12.95569221563985   10.46413881474775
H         4.76247339520694   12.97069553078933   10.86527286460525
C         5.30176673166574   11.89010910212876    9.07592407089930
C         4.39231237921357   12.55308135918005    8.27184903095173
H         3.86322233634933   13.41311929949550    8.64985784250448
C         4.18476686775498   12.09912941372053    6.97810578231838
H         3.49759682848949   12.60606002102109    6.31990208651429
C         4.86383852319258   10.96991933008789    6.56476976659675
H         4.71300333730790   10.57026210357475    5.57506223489578
C         5.75279153204439   10.33392380788343    7.42758591037781
C         6.44902908671137    9.09011300825267    6.99096279866352
H         7.42716961569719    9.33332265742666    6.57742498449826
H         5.87552511034653    8.58280285489944    6.22025159536994
H         6.58704426147177    8.42343994368323    7.84134284115083
C         4.54757743701155   10.52029815943250   11.68033327710239
H         3.89444955125377   10.54988876970883   10.80122376807100
H         4.04285440979472   11.04512314329360   12.50328222765718
C         4.76859660313378    9.07092819292989   12.02830602399692
C         4.20914914892869    8.48042245772426   13.14784195757525
H         3.60772605473510    9.05719434893857   13.83243799835539
C         4.43831842771780    7.12820280898742   13.36266755019606
H         4.02399728641532    6.63524673244497   14.22822067918218
C         5.19745525058471    6.42647897756098   12.44671758536299
H         5.38413694515657    5.37217794597302   12.57339314098078
C         5.72522828237343    7.09643355298907   11.34426607617808
C         6.52234193186369    6.37769175153826   10.30817987668629
H         5.86078040628053    5.76667187628503    9.69501776533777
H         7.25464314851969    5.71846654751731   10.76723973651237
H         7.02081945433016    7.10642722497357    9.66866195518383

