68
CSD_code = QOZTOP | q = 0 | S = 0 | Stoichiometry = C30H36AuP | MND = 2
Au        3.35045973948928    1.67578762834380    2.38468789259628
C         3.43394384738697    2.95590686043954    0.79792798296114
C         4.12914901460432    4.16835740119247    0.86061398312857
H         4.59161140187351    4.46127931871045    1.79655779025561
C         4.25867577128616    5.01976013462649   -0.22287626398738
H         4.80931361787809    5.94680178642212   -0.11996659057036
C         3.68593556426179    4.68863717672894   -1.43725956879882
H         3.78303476650432    5.34833418816885   -2.28950328025050
C         2.98621465170765    3.50066591260297   -1.54364675941302
H         2.53008395728934    3.22411232970307   -2.48621759908297
C         2.87021400527969    2.66296151475670   -0.44763624902811
H         2.31543394752895    1.73898354734049   -0.57139351449733
C         4.28029011582009   -1.33139496981106    4.07502845338461
C         3.88438089226149   -2.52145285366875    4.68319614950275
H         2.95176896366820   -2.56960267970468    5.22535574773669
C         4.66501702445778   -3.65800917659922    4.59675809721792
H         4.34388974040713   -4.56827427269244    5.08158980699304
C         5.84962984190429   -3.63045953003247    3.87893098696319
H         6.45613137747351   -4.52016494517008    3.79809026317134
C         6.25198832041372   -2.45932907089584    3.26689119881969
H         7.17694257733471   -2.42608334908070    2.70912558997792
C         5.48898834173380   -1.29952260492195    3.36777770991784
C         5.98314141823312   -0.06892819630567    2.72369514107359
C         6.30623011651685    1.05038592576909    3.48459222870479
H         6.20719838378642    1.00944252472937    4.56079276479462
C         6.78350779435191    2.19691602526285    2.87508066226539
H         7.03334653937868    3.05895679128785    3.47641233865228
C         6.93334313131354    2.24224289996598    1.49992716085913
H         7.28733200385979    3.14259957310241    1.02229071860400
C         6.62154763902608    1.13014755799328    0.73670960181894
H         6.73184832271064    1.16453626638456   -0.33644700215871
C         6.16072741899754   -0.02304459096298    1.34421252767557
H         5.91081399393646   -0.89045142829573    0.74984745039791
C         1.51912293990523   -0.53430203989950    4.05155757374063
H         1.33705288117513   -1.21643162073651    4.88953658444162
C         1.38806242911684   -1.29021307550336    2.72761038224913
H         1.64259491381370   -0.60694948040703    1.90966631403940
H         2.09667369159718   -2.12273109164655    2.69644860979312
C        -0.03206219482590   -1.81127823925818    2.53280584203028
H        -0.10280108147796   -2.33094099597984    1.57537870501236
H        -0.26724557764912   -2.53089134752030    3.32168988113230
C        -1.03230278176796   -0.66113910995546    2.57969068792205
H        -0.82758354557371    0.03021992090148    1.75958868376547
H        -2.04726050128345   -1.04294280205379    2.45371009202655
C        -0.91543980065931    0.08175487540883    3.90596510047464
H        -1.16950179071345   -0.59601905081027    4.72576372162324
H        -1.61982174104120    0.91550760167911    3.93112496108325
C         0.50396468224476    0.60745010760531    4.10040230427254
H         0.74115015562076    1.32471075814723    3.30701305833476
H         0.56829997329109    1.13531774151027    5.05490379950208
C         3.52315695463961    0.76197199514444    5.85707683285625
H         4.59048412819790    0.56479278507681    6.03718502767596
C         3.30339484418543    2.27420248854913    5.91020418288404
H         3.89888046166118    2.75601234547787    5.12871102451044
H         2.25425322394523    2.50416729467668    5.70969193949262
C         3.69046567200080    2.82050247531915    7.28126759838932
H         4.75894868992337    2.66112647343334    7.44687465064604
H         3.50358671121400    3.89535152967800    7.31587448369345
C         2.89881123570372    2.11580516530077    8.37894305490861
H         3.19641482697933    2.49829292660304    9.35711007800004
H         1.83411711578641    2.32387007859214    8.24876260870067
C         3.13198131147638    0.60928776974104    8.31861082595895
H         2.55444110683110    0.11041154278122    9.09990444581975
H         4.18894931507660    0.39782529585780    8.49837016936528
C         2.72811115513597    0.05546573860295    6.95285415194946
H         2.92180079160475   -1.01906178785019    6.92735765558600
H         1.65835207768376    0.21878957847303    6.80909980010936
P         3.23441348351106    0.16836645770755    4.10659974831285

