78
CSD_code = QOZTUV | q = 0 | S = 0 | Stoichiometry = C36H40AuP | MND = 2
Au        9.71160530753919    3.04852344331898    8.65754128426496
C        10.98153591618414    2.19482720101534   10.01637347193432
C        10.57654497438821    1.17388629912118   10.87851000807372
H         9.53012781642808    0.89447864344392   10.89668647471655
C        11.44918574417524    0.50113734867722   11.71665205482472
H        11.08038141628631   -0.28008569664751   12.36875955671004
C        12.79446070027238    0.82296621944990   11.71351375489969
H        13.48846532937456    0.29761832549881   12.35562114666074
C        13.23990826388938    1.83225268250798   10.88231521667486
H        14.28613885144124    2.11135312726395   10.87834133158377
C        12.34809570399966    2.51491999915870   10.06115060960285
C        12.88481683884127    3.61888304331552    9.24148284467835
C        13.89096515899741    3.39499138445929    8.30687322574613
H        14.26078262685841    2.38935856754031    8.16157347331338
C        14.41171605001198    4.44052798125492    7.56585883577886
H        15.18975615452301    4.25145680602429    6.83911867311666
C        13.94563761098670    5.73032808139183    7.75931475748334
H        14.36409251971274    6.55042858356658    7.19284942910626
C        12.94774902920111    5.96598681104040    8.69046952670223
H        12.58908704783519    6.97344038780035    8.85322690253292
C        12.41604168258771    4.91778907960085    9.41958519905468
H        11.64852789158217    5.10122528991061   10.15768362952949
C         7.01195116464025    3.59228964157178    6.12017723676696
C         6.51479480822683    4.37484003913816    5.07779819261864
H         7.04567606573810    5.26546416867399    4.77264262177247
C         5.33739296739231    4.04288927810435    4.43823662087951
H         4.97054092009276    4.65865451018304    3.63021711582614
C         4.62267240315507    2.92747011880968    4.84601281926833
H         3.69670818161068    2.66708424849437    4.35539853174628
C         5.09655550150837    2.15356846599794    5.88661246124680
H         4.54512399782231    1.28321779731863    6.21253720194445
C         6.29296392426881    2.46678271485132    6.52839667909683
C         6.74732794516133    1.58133040695064    7.61733697387649
C         7.88325969400878    0.79244177536885    7.46649964552159
H         8.45825883281145    0.85860684581443    6.55382657719094
C         8.24374766149015   -0.10995428148040    8.45194370688323
H         9.12213080025385   -0.72384522705217    8.32214993959797
C         7.48499956625565   -0.21905000788180    9.60436998450013
H         7.76319790094443   -0.92807036733460   10.36971147596087
C         6.36562766946709    0.57965814232685    9.77159952961267
H         5.77586030127044    0.50362648696244   10.67349102065350
C         5.99207964218281    1.46765132642494    8.77968400457135
H         5.11177516200296    2.08353825276585    8.90145883664838
C         9.66391434758293    4.33601569117672    5.55364128543482
H         9.14638473532881    4.88982608872315    4.75993842656454
C         9.99107174203275    2.92595652008127    5.05756289006329
H        10.42744766520050    2.35858535893431    5.88710222539142
H         9.06943053904657    2.42346868106765    4.74580058094678
C        10.98043446821039    2.95815770893064    3.89801079218419
H        11.20713071997195    1.93803494238223    3.58146996061464
H        10.53079574552322    3.47961271415256    3.04873435838611
C        12.25814782293134    3.67623525863672    4.31777671406235
H        12.72655538838237    3.13658431019400    5.14371121562739
H        12.96404469112698    3.70166078129963    3.48537764376778
C        11.93145227100501    5.09422501693586    4.76918949160595
H        11.50194159540228    5.65260618924980    3.93276586310194
H        12.84231425963576    5.60529572846094    5.08461338584577
C        10.94296851225707    5.07476916334180    5.93216982693132
H        10.71324821466597    6.10407854208458    6.21592628452612
H        11.40471622496133    4.57849230415401    6.79049816942914
C         8.03452154209348    5.84189915856083    7.52109641139329
H         8.05572781948223    6.50370568000950    6.64423859697907
C         9.01475941895962    6.35296320427965    8.57804520841476
H         8.99209349102958    5.66909693952714    9.43214087450768
H        10.03551572548649    6.35715666512674    8.19401552515095
C         8.62811061255260    7.75312230614997    9.04511756831308
H         9.34512991778854    8.09988899521022    9.79167663992619
H         8.66414725895970    8.44520186430898    8.19965877935406
C         7.22269559231143    7.74162431099152    9.63602959884801
H         7.20836436238477    7.09989443435394   10.51973305484515
H         6.93711804543984    8.74835590175253    9.94734216176804
C         6.22709764031611    7.21212193827511    8.60959170687888
H         6.19196778020555    7.89265061093281    7.75477298069480
H         5.22631457603982    7.17264270459837    9.04459942932409
C         6.62745939699754    5.82108716363188    8.12451520284053
H         5.89716487126183    5.47334746304705    7.39021050240969
H         6.61617474995018    5.11818505442893    8.96393441474333
P         8.52877051004434    4.11806266028139    7.00838964595114

