97
CSD_code = QOZTEF | q = 0 | S = 0 | Stoichiometry = C39H51N2P2RhSi2 | MND = 6
Rh        0.76100967672780    3.68146018035888    2.37620430000635
P        -1.45202502593519    4.32909444878320    1.11157505940049
P        -0.40528062088071    6.15915224551476    3.22055682505691
Si       -2.73817801753702    1.98676730058131    2.29057474539779
Si       -1.37321969481035    5.05946365385013    5.87087359116670
N        -1.42940239326992    3.10702023416843    2.12602181327651
N        -0.80281255488180    5.04149316804696    4.25031321923103
C        -0.12086832471406    5.40422363981249    1.62856053152061
H         0.26296258164747    6.08648921134345    0.86458992969391
C         1.40261326707973    1.62353646009577    2.61881440077362
H         0.51356171502460    1.01480040537985    2.48028452122593
C         1.54227366229428    2.30465681766550    3.81360666981839
H         0.75796530354088    2.19455007208561    4.56330346218546
C         2.86778871197986    2.79382345204575    4.35524540122071
H         3.46486752765383    1.93418625062239    4.68043552870292
H         2.67017891194600    3.40144104752823    5.23958219864086
C         3.66329711554345    3.63352561164057    3.33532965641778
H         4.23026739053960    4.39620410939465    3.87215757922951
H         4.38467455353609    3.00811021365854    2.80602569819048
C         2.76333239269446    4.31626490428733    2.32172681995717
H         2.85127893797160    5.40226834038638    2.32037403472428
C         2.40393297421486    3.72165805326754    1.09363136528883
H         2.24101932026275    4.39177123843104    0.24540638247054
C         2.83001757232240    2.33651642130004    0.65855538712772
H         3.89154098951482    2.35665731427937    0.38684162567233
H         2.27016423667500    2.08314609088331   -0.24428841708610
C         2.57447399368024    1.26262454181638    1.73162630947439
H         2.37315998021115    0.30957863700390    1.23834993478524
H         3.46277352375349    1.12533452984602    2.34940941007939
C        -0.93769154003638    3.90360200818486   -0.58678827093152
C        -0.49941595447887    2.60796334730438   -0.82542644506082
H        -0.54030428364737    1.89508108233068   -0.01155799049143
C        -0.02400979693910    2.25408716510536   -2.07511638554529
H         0.31089353916149    1.24395459896514   -2.26353477897516
C         0.02448578208557    3.19861173936260   -3.08837442941193
H         0.39482495180008    2.92510280318256   -4.06557308429348
C        -0.39359563256007    4.49789115483282   -2.84863362325931
H        -0.34489389936949    5.23485753800021   -3.63762040707247
C        -0.87012549442055    4.85345554316906   -1.59930730630015
H        -1.18860137102139    5.87016391841567   -1.40748212485296
C        -2.04420201621625    0.25749922918005    2.71553208389416
H        -1.45202901189211   -0.17022088746677    1.91262329390717
H        -2.86938650247851   -0.42091714705064    2.90439157122656
H        -1.43327072666428    0.28257370505369    3.61132716602439
C        -3.96817071700323    2.45715642521339    3.67309315574342
H        -3.44799657404306    2.75401460067447    4.57653950726659
H        -4.60343527600007    1.61116291302217    3.91697739716661
H        -4.61237152881264    3.27873607376285    3.37462064302127
C        -3.74811821384746    1.85125531588214    0.66537358440868
H        -3.13810832354430    2.08691868470703   -0.20299832896288
H        -4.58287042494489    2.54653564364242    0.67280695387112
H        -4.15474667824812    0.85486311335025    0.52338249272109
C        -3.09519454422421    5.10524593766632    0.98176701938733
C        -3.83537915656913    5.28447842979758   -0.17821423645474
H        -3.45166947899464    4.94173618837174   -1.12896505969465
C        -5.07776117123223    5.89208717818507   -0.10782623159822
H        -5.65748473372126    6.03227113098595   -1.00914056931089
C        -5.58104452286348    6.31760014527151    1.11064912972184
H        -6.54926101714509    6.79479002242507    1.15503551153834
C        -4.84929971422148    6.12377921976717    2.27228964914444
H        -5.24466588258771    6.44725054024755    3.22417910361831
C        -3.61065501201055    5.51651001502765    2.20667295383190
H        -3.01943832292082    5.33917660203884    3.09644037943550
C        -3.20829665742892    5.59883655347802    5.98839308318073
H        -3.37864735998660    6.56719397794859    5.52576322679948
H        -3.52443592960505    5.66779469907017    7.02521864039062
H        -3.86065054515143    4.88444793782066    5.49671433264011
C        -1.21613026588157    3.25786748452628    6.48037239697592
H        -0.21727241660560    3.04560401140055    6.84857415340580
H        -1.43183980516324    2.55563758075532    5.68220141684993
H        -1.90949427359551    3.06518175978318    7.29256240159127
C        -0.38726942490936    6.16560752934623    7.09464465113453
H        -0.04801289300261    7.09064506195595    6.63563575294923
H         0.49610771508257    5.65331094872314    7.46434834052004
H        -0.99223338533998    6.42772105355887    7.95750720278073
C         1.14655713775953    7.03585682421030    3.63762983000822
C         1.53432687389007    8.21982846054641    3.02469606194188
H         0.90457676709033    8.66735586788125    2.26725490294405
C         2.72436773182640    8.82445980902545    3.39004692200441
H         3.02986218514444    9.74480639007222    2.91292842061525
C         3.52256125682429    8.25572776924434    4.36978930313526
H         4.44772570156196    8.73579937696898    4.65441769346001
C         3.13535509183303    7.07506833138822    4.98433210146801
H         3.75876894715826    6.63580980520330    5.75021112248595
C         1.95065458711053    6.46636525101525    4.61487586290456
H         1.61731830320376    5.54104917717923    5.06348621701617
C        -1.50992844021790    7.62141321848842    3.03057416615425
C        -1.83179992002904    8.34270710572744    4.17351761233223
H        -1.41567032428882    8.03124517992287    5.12078443831172
C        -2.67049109434931    9.43891302450282    4.09739560727830
H        -2.92065381939517    9.99166599554720    4.99158818693901
C        -3.19001958838336    9.82852822064314    2.87296026811180
H        -3.85053671622881   10.68109359271196    2.81222722513247
C        -2.85477889807383    9.12897680794988    1.72618969388138
H        -3.24981151485310    9.43705638363096    0.76858767248169
C        -2.01572933713930    8.03205681762029    1.80461054774396
H        -1.75385414608223    7.48967541959281    0.90573023709785

