71
CSD_code = QOZVAD | q = 0 | S = 0 | Stoichiometry = C31H38AuP | MND = 2
Au        1.40713043716218   -0.65633642398723    2.50931860270255
C         0.52282498960569   -2.29997446907123    3.32948360838078
C        -0.70138669315000   -2.23090889819018    4.00271334688038
H        -1.24401908723043   -1.29176208631740    4.01267504359091
C        -1.25943704050374   -3.31015194879204    4.66570630640115
H        -2.21040045972501   -3.20088102224927    5.17261642990750
C        -0.60271971008761   -4.52718330544256    4.68510366773155
H        -1.03028676973936   -5.37521320155445    5.20396168963410
C         0.60963318249629   -4.64221318745555    4.02970218697201
H         1.13875050696766   -5.58741216237006    4.03352874080535
C         1.14918171934992   -3.54988755761288    3.37252451294059
H         2.10321466805904   -3.67847407368599    2.87191925068606
C         3.69675158216491    2.14634589114852    2.53509389132120
C         4.52533747039715    3.04668405479316    1.86616031111036
H         4.43351063362197    3.17582743311229    0.79822643165517
C         5.47550136727943    3.78114319195618    2.54898396125772
H         6.10570033208945    4.47551454932509    2.01273475888109
C         5.61483336121932    3.62605735532468    3.91825777562374
H         6.35113666969931    4.20252230511144    4.45836112477303
C         4.81255124509405    2.72315550334202    4.58938734393007
H         4.92160048599136    2.58683121510368    5.65607515448649
C         3.85415505848411    1.97239142993834    3.91562552162316
C         3.05472263008783    1.00639616430100    4.70601097205420
C         1.90620706500353    1.42653753770550    5.36450086320843
H         1.59202993872708    2.45684507195341    5.27636089624397
C         1.16915985239607    0.54153484289977    6.13103597275506
H         0.26782449023747    0.87737421027520    6.62176936195101
C         1.59246715189821   -0.76769905195580    6.26722342326881
H         1.01796421416582   -1.46847106797387    6.85281178044052
C         2.75790006657612   -1.18097913806601    5.64749132575674
H         3.08881116037867   -2.20252911034530    5.76143716714358
C         3.50172535889956   -0.30993274168644    4.86475413653246
C         4.76831647492913   -0.76193024806254    4.20418284967448
H         4.89803968522804   -1.83484046431626    4.31834337645474
H         5.62923133422888   -0.25651989973188    4.64354462925800
H         4.75245963734138   -0.52250592670455    3.14158758523600
C         3.19544705290231    0.81561645240345    0.00969493400815
H         3.58160635128277    1.72032537221961   -0.47316849477470
C         4.34832932677064   -0.15370029923851    0.27136104991916
H         3.96004955297747   -1.01811909473060    0.82133267734624
H         5.10768108481782    0.33232108044529    0.89227346670071
C         4.97519690840760   -0.62768750295383   -1.03584573565639
H         5.40843916933171    0.22664562789170   -1.56268299115144
H         5.78162062002553   -1.33167430352147   -0.82159909837335
C         3.92240216717136   -1.28898845178015   -1.91900768819479
H         4.37418982734309   -1.61664647663526   -2.85719283885532
H         3.52440612247790   -2.16977147153822   -1.41072037693361
C         2.78581071146706   -0.31246077074181   -2.20121222187929
H         2.02610626343626   -0.79172743700198   -2.82147248927842
H         3.17512735004886    0.54709471218660   -2.75373438209185
C         2.15138478160822    0.16623512139655   -0.89807952296465
H         1.70528125625114   -0.68503754334885   -0.37237285874717
H         1.35227729894138    0.87656110610330   -1.12400458579898
C         1.12915721975661    2.48890022223899    1.24859021799841
H         0.37432980577715    1.93654962790565    0.66924761639314
C         1.57938625263826    3.70856613461378    0.44968355948428
H         2.32208198701400    4.26859809684149    1.02268946638068
H         2.02837316962548    3.40733240780075   -0.49953103496735
C         0.37838858615438    4.61264529641052    0.17412483253120
H        -0.35179765272899    4.07105686643693   -0.43231708708144
H         0.70223571489843    5.48705465234007   -0.39455490043115
C        -0.27570688971499    5.05395346391148    1.47978603853796
H         0.43714421528799    5.64560181219510    2.05940664376941
H        -1.13975426368806    5.68616302073630    1.26667310149097
C        -0.70697779167425    3.83933392656161    2.29646444949154
H        -1.14497442130902    4.16149895094666    3.24317287867893
H        -1.47001206243273    3.28250714092540    1.74754887053532
C         0.48830553841203    2.93043795182553    2.56331805306984
H         0.17598115150389    2.04915738797265    3.13281306075892
H         1.23080657238478    3.47270449866182    3.15623383175017
P         2.40855401348951    1.20029764978980    1.64516755708141

