99
CSD_code = QOZVUY | q = 0 | S = 0 | Stoichiometry = C47H48P2RuSi | MND = 8
Ru        5.86954498486087   15.99819265449026    2.71756032899794
P         6.57458315859583   17.14855763191290    4.51060166170941
C         8.25064501191862   17.87739655288572    4.57122586969604
C         8.66888064834574   18.69156850221020    5.61901059142346
H         7.97348327102415   18.95150693606653    6.40593623919074
C         9.96548050186289   19.17065828629176    5.64265529309797
H        10.29017201984128   19.80422739641389    6.45537542859713
C        10.85153101311137   18.84072667713333    4.62791013779865
H        11.86309842712885   19.21877119284539    4.65232625673323
C        10.44056997179538   18.02821116116882    3.58450403493014
H        11.13100776992221   17.76887514759162    2.79403694817540
C         9.14236239968560   17.55014464349972    3.55918373815506
H         8.79692385125832   16.90724248446504    2.75784950335191
C         5.57518611612075   18.51460285942999    5.16914645828560
C         4.52564052351008   18.32168444578581    6.06128057736644
H         4.33526334787728   17.34175264416854    6.47058663651638
C         3.71650806597214   19.38566703440400    6.41831217435013
H         2.90367573785295   19.22890031800666    7.11209081593429
C         3.93836393513491   20.64452051890609    5.88524343191920
H         3.30137371868309   21.47095028744785    6.16405007780704
C         4.97688304013045   20.84223221576050    4.98886684118775
H         5.15100065280626   21.82278129783919    4.56870541287007
C         5.78637354179188   19.78229774506402    4.62900417497633
H         6.60228700722598   19.92875072391450    3.93194515705214
C         6.72814215585396   15.95046391675357    5.91832813282434
H         7.20292593552054   16.42542917133795    6.78312574365928
H         5.71589778170805   15.62749447026462    6.18116535218298
C         7.53253482785218   14.75655399261874    5.41499802774641
H         7.45868595425187   13.91202784367639    6.10594575821978
H         8.58472618182212   15.03990519630500    5.31716370229950
P         6.89707914648459   14.26226106036670    3.72728572588875
C         8.36129806699791   13.49304471679500    2.94775616246335
C         9.62655026727800   14.07054513965873    3.00643563419862
H         9.79756655123639   14.94807449701229    3.61331032508825
C        10.67885183343754   13.53079847330508    2.28893254647919
H        11.65774801727577   13.98437844631799    2.35126203075324
C        10.48107651368266   12.41802939301236    1.48828540149561
H        11.30322766795568   12.00124150802481    0.92557420906357
C         9.22183072530414   11.84583346889502    1.40903700594571
H         9.05882730308183   10.98103053984334    0.78195102364163
C         8.16976042147311   12.38097049563910    2.12876040774498
H         7.18834600632652   11.93040347961046    2.06845466808721
C         5.95600099508368   12.74539316728139    4.12795049907033
C         4.65544593774179   12.61714683905361    3.65933791067666
H         4.22691423037519   13.42981291026197    3.08625264737923
C         3.91987100065064   11.47962531506554    3.94166194816186
H         2.90483395009502   11.39016115135522    3.58327303826670
C         4.48575562038419   10.45929741447772    4.68680992393258
H         3.91308633187415    9.57168904992275    4.91235135277386
C         5.79144105728230   10.57265169592241    5.14018801734023
H         6.23561228657403    9.77039783108795    5.71188453405599
C         6.52752874347293   11.70820092980530    4.86078310984738
H         7.55335230247211   11.78693806775379    5.19715622090272
C         4.33117580809566   15.74163120055891    3.95616583525715
C         3.27482570982879   15.63598816819763    4.56803404592118
C         2.13621745483846   15.47863904740654    5.25824507724028
C         1.09588459969936   15.32469629373191    5.88879249230813
C        -0.03343681496209   15.14274393708529    6.57148851891556
C        -1.07146219498894   14.96593555120531    7.19856017629002
C        -2.20915846728498   14.75971762730119    7.87718136709015
C        -3.24428237580970   14.56518392205546    8.49427244543281
Si       -4.81364605606323   14.25508498354034    9.41115587338608
C        -5.61457711359409   15.92494017390674    9.87150392934407
H        -4.95714363422388   16.51530126449170   10.50284661607022
H        -6.54776098248751   15.78296066247737   10.40975988589615
H        -5.83221615046795   16.51359508931568    8.98525550428072
C        -5.99742561498001   13.25525787117633    8.29701586677669
H        -6.21639374835645   13.78988111396219    7.37747995046100
H        -6.94212841944077   13.05793716470528    8.79629583467590
H        -5.56351085134735   12.29812633148216    8.02320049436561
C        -4.42832266526848   13.26391914779756   10.99586070150884
H        -3.95885074894815   12.31357341161792   10.75963709928360
H        -5.33145334203118   13.05332849771974   11.56220219432193
H        -3.75166844768134   13.81009493432075   11.64637314985650
C         4.84455316943513   17.29792392838923    1.27822534084698
C         6.25585413532220   17.47004041715821    1.05734853267003
C         6.80375585494699   16.21615611890681    0.67975116843937
C         5.71994959156367   15.26317311982009    0.61667072760284
C         4.51314350379927   15.94180732627867    0.94510690204686
C         3.84869659735099   18.40263783355574    1.48201722277652
H         4.24373204902674   19.17546278020106    2.14126319282577
H         2.93507756804453   18.01697285906418    1.93055949014520
H         3.59521606965050   18.86261240170244    0.52345664222415
C         6.95555354618277   18.79498423651109    0.98575270083930
H         7.97432920586035   18.74753572208839    1.36872247593378
H         6.41254381620289   19.55177221754945    1.54824864830579
H         7.00129681235237   19.11759428197285   -0.05765694545514
C         8.16846500911795   15.98378359796884    0.09605932739213
H         8.09173585999680   15.91097605074446   -0.99185974733150
H         8.61548273401620   15.05851113387577    0.46167921270718
H         8.84192777124614   16.80641111913483    0.32997139635265
C         5.81993508009811   13.90699874213398   -0.01900882441135
H         5.12578026958472   13.19896927841078    0.43221227818295
H         6.82772820360063   13.50610964713174    0.07395059063703
H         5.58122018115523   13.98642995371176   -1.08281523304919
C         3.12083521201091   15.40596585191481    0.78783102246738
H         2.67435331145731   15.81584112141919   -0.12102273228454
H         2.49025304438816   15.68480420828843    1.63145865597042
H         3.12505892902033   14.32077011886947    0.70662204518204

