105
CSD_code = QOZYEL | q = 1 | S = 0 | Stoichiometry = C44H56AgN4(1+) | MND = 2
Ag        4.59383059859692   14.63881339466202    6.36684523444703
N         6.87008377126987   13.02190324141745    8.13204229035500
N         7.43190364435577   13.76293370494295    6.20115489497342
C         6.39197303431261   13.67817933790769    7.05582608271783
C         8.18930694614862   12.70351553475521    7.94141023102349
H         8.77964807867301   12.17942096523657    8.66247535933985
C         8.54514566272624   13.17095797712865    6.72216078273346
H         9.47925337264226   13.13378287165518    6.20055111630788
C         7.35536757441084   14.40959747165837    4.93777471292897
C         7.13224878085528   13.64768267613992    3.79050318292285
C         7.09479058794158   14.29681465951721    2.56472684703316
H         6.93771479325865   13.71405661414638    1.66916505777962
C         7.26479317378345   15.67036462586312    2.46624196806957
C         7.47985225431206   16.40376187416403    3.62757346309898
H         7.62200531272049   17.47230160677681    3.55719364545923
C         7.53803286436655   15.79398421172631    4.87045611053055
C         6.93930658516196   12.16554619693499    3.89273461561286
H         7.82784758152908   11.68768641051440    4.30387191405374
H         6.74175587010210   11.73619735636529    2.91501329182400
H         6.10154804070369   11.93572018502739    4.55276071639625
C         7.23098712153642   16.36345596527821    1.14009994096927
H         6.45067489813506   17.12352681227187    1.12486061471599
H         7.05126717897677   15.65971015387293    0.33195415373065
H         8.17960638616194   16.86515115736058    0.95587039108341
C         7.82800789869654   16.58367904409033    6.11187789652776
H         7.05436090385102   16.42640432690408    6.86660699391152
H         7.88384655084318   17.64413987862580    5.88462231028871
H         8.77996894628686   16.27317000776327    6.54243089689664
C         6.14844631984383   12.68505204857531    9.35901524527117
C         6.83811990418181   13.37069036806086   10.54624352638190
H         7.88295522445803   13.06225923652067   10.60850032968031
H         6.81392755687306   14.45394783999539   10.39999094999019
C         6.11817917738250   12.99658296061502   11.84196802037082
H         6.62421227838872   13.48232174801435   12.68213559664460
C         6.15655182009563   11.48055087735763   12.03024520054896
H         5.65943407900644   11.21190484122519   12.96329621432295
H         7.19106926008666   11.13703519554827   12.09456936257619
C         5.45162708366382   10.80374149054961   10.85538648583307
H         5.47978063353487    9.71792266536970   10.98797231413995
C         4.00064246980829   11.27415811009590   10.78690681403189
H         3.48623632181426   10.78285595830112    9.95819890027322
H         3.48044151229455   11.00731004477695   11.70783696021194
C         3.97533905475532   12.78910429837716   10.59578715073396
H         2.93876578577683   13.13345349309435   10.53007395473917
C         4.69577230098620   13.15798525067117    9.29814160242060
H         4.18700243346964   12.68412972123294    8.45071616010916
H         4.66406799969266   14.24571366230509    9.16386628526367
C         6.16839507734374   11.16298740416055    9.55350820920362
H         5.67386229675276   10.68238415129542    8.70557304360811
H         7.19597000942667   10.79824352594550    9.59297820436605
C         4.66862578675233   13.47050526911683   11.77329991666609
H         4.63784316336632   14.55377225450620   11.64491624151543
H         4.15302880040692   13.22337835125973   12.70243610422125
N         2.08641130510774   15.83537805327166    4.58310276168102
N         2.37533930115908   16.61601337040719    6.55802187633544
C         2.86455851588350   15.71878944524599    5.67791087419108
C         1.12643566798115   16.79173208076842    4.78773204569949
H         0.39286211673167   17.05685466934816    4.05649426903168
C         1.30808871593015   17.28553084966758    6.03469320701913
H         0.77846667816409   18.04320460982807    6.57455718829240
C         2.93107217148316   16.82858502779129    7.84883678778767
C         2.36780573821794   16.18469659128093    8.95105066844330
C         2.90525926335985   16.43336182844089   10.20582159540825
H         2.46681783969405   15.95159950938076   11.06722260343287
C         3.98140174179347   17.29254645040776   10.37620976259690
C         4.52539520798640   17.91478205685109    9.25834150269146
H         5.35812902502261   18.59117922616978    9.38471929807725
C         4.01148588139402   17.70453260999074    7.98877039130818
C         1.21061240832249   15.25040604508038    8.77098275820860
H         0.35125603143820   15.77534155100036    8.35522894041461
H         0.91809386390628   14.81466591012245    9.72168029120339
H         1.47492630733855   14.44604116435011    8.08282444282780
C         4.55012539621927   17.56393317688638   11.73376218439752
H         4.02974963158418   16.99575590897220   12.49994016082249
H         4.46234733224238   18.62305577931858   11.97086541245919
H         5.60870414993055   17.30860055092814   11.76400104062479
C         4.56717971137636   18.42331920618595    6.79576323433385
H         4.83902989684019   17.72053653140845    6.00544015259415
H         5.44730145843589   18.99649307376545    7.07197190976078
H         3.82381637186676   19.10918251031098    6.38932032072645
C         2.20339559885994   15.09343297894831    3.32790739213005
C         0.89961477660108   14.32452970025234    3.07503627207227
H         0.05279255397403   15.01195974123531    3.04448707817162
H         0.73024976486531   13.61924372293766    3.89263306799982
C         0.99597718014170   13.57704908775730    1.74478121247876
H         0.05861751791316   13.03993901437907    1.57082535816413
C         1.23017498354177   14.57684140927941    0.61303622214888
H         0.39832457336133   15.28209203746335    0.55855544213681
H         1.28081197996743   14.04968399786048   -0.34059293333893
C         2.53849398390470   15.32729538296029    0.85876980663327
H         2.70624900573223   16.04482247164333    0.04947319710795
C         3.69800860776155   14.33588497173540    0.91364866319222
H         4.63475146578165   14.86932063753210    1.08294653693073
H         3.77650345618643   13.80369802146081   -0.03547656349612
C         3.45421238841168   13.34384766936791    2.04845706579475
H         4.28789252528116   12.63736114812009    2.10480563582336
C         3.36423456982532   14.09955476612721    3.37499946563798
H         3.20763898900411   13.38506409823553    4.19159047844647
H         4.30492393834407   14.63440588801486    3.55113793924021
C         2.45349073096944   16.08522420554657    2.18374627204029
H         3.38659328712130   16.62328596859136    2.37135672319855
H         1.64653908992823   16.81786759993718    2.13222521121681
C         2.15372781126448   12.58302706617101    1.79924943075276
H         1.98587739888272   11.85594407500943    2.59667668295211
H         2.21790733044819   12.03645752258210    0.85739115331477

