38
CSD_code = QUBDAS | q = 0 | S = 0 | Stoichiometry = C19H14CrO4 | MND = 9
Cr        8.38353253766319    3.87558718520942   12.94192295399542
O         9.02635334262914    1.00206462192889   12.51384024440947
O        11.32431334857030    4.01594001028972   12.51121670229965
O         9.33399722118920    3.17263397680586   15.67432415575237
O         6.37097020302651    5.53692604646696   15.04412769557834
C         8.73925596721657    2.11155062050113   12.65765566051625
C        10.17727442041508    4.00139106093216   12.65169984111527
C         8.93333339622862    3.46219868665226   14.63005258740572
C         7.14386351513637    6.44852426106147   15.79377167419740
C         2.68322917686022    1.01879835547721   14.75302686380600
C         1.75939099494246    0.32448725354059   15.50887966474124
C         1.55299307688946    0.65641081876675   16.83887468315921
C         2.27623274431059    1.68945337977554   17.41524076124245
C         3.20223821454259    2.39140328102183   16.66979490692189
C         3.41406774999903    2.06053189932420   15.32903381181114
C         4.35915255558266    2.77705522271492   14.56985416114758
C         5.18503223748417    3.38839615744908   13.93253213402191
C         6.12402332954949    4.11934000874389   13.18148005179965
C         6.74823815100979    5.26106086316380   13.77096335171272
C         7.62890286643037    6.04142574338974   13.01129097896724
C         7.90662347183900    5.68192926549334   11.67917649814132
C         7.27160360556912    4.58742222098571   11.08203897850674
C         6.41094547871130    3.77499870019392   11.83622277787834
C         5.69080622450971    2.62091932657730   11.20683650214867
H         6.76461178943907    6.38256185211645   16.81166482319085
H         8.20260981753180    6.16990926510735   15.78038964773222
H         7.02340549364075    7.47521216764911   15.43258814041974
H         2.84867598742085    0.76311554888461   13.71632432981466
H         1.19623405796090   -0.48107378277925   15.06041012919273
H         0.82994782810304    0.10982629454965   17.42596642501341
H         2.11606266154071    1.94664458665603   18.45223463312223
H         3.77178783473292    3.19654289245371   17.11016790481912
H         8.05511223007347    6.94873122460549   13.41792105633614
H         8.53291332723370    6.33364609664197   11.08075717410551
H         7.42392378756677    4.37871845641526   10.02986571562764
H         6.16339602974959    2.33228458802614   10.27042405085096
H         4.65208014523083    2.89023095233093   11.00512930846625
H         5.68536517944649    1.76380089085403   11.87859902001465

