42
CSD_code = QUBHIE | q = -1 | S = 0 | Stoichiometry = C13H18CoN2O8(1-) | MND = 6
Co        4.09723633745137    6.80096177437612   14.43707645966626
O         4.90529963644845    8.48168741183887   14.81453651695446
O         5.50610607397354   10.29837892289708   15.89938291219003
O         3.22452906956087    5.15389843858291   14.05249809274591
O         2.23350147848340    3.54332410073132   12.92856473292443
O         4.98002552469277    5.97128442451357   15.84994223535132
O         4.64639501657145    5.09554775722215   17.86502626362202
O         5.44930314170145    6.46052076433332   13.20467241736569
O         6.23263391800027    7.10200203322252   11.22633498598482
N         2.63763816222438    7.18268232594425   15.82595382712959
N         3.14029834314939    7.68440697319483   12.85477445200121
C         1.32058162027745    7.21009112827050   15.17581061507820
C         1.09275492556984    8.37445502134592   14.19534934949808
C         2.29683817482802    8.78895454430197   13.33098479147500
C         2.77461211497768    8.37184007145451   16.68855623196577
C         4.20623745075190    8.68961621929222   17.10476521919577
C         4.96928715093060    9.20247494757808   15.86328449300007
C         2.35232697898224    6.83493324095003   11.94152672153203
C         2.95228414470772    5.45757681092010   11.68357519355130
C         2.81213049201991    4.61741045970825   12.97266093698998
C         2.75597301100028    5.97980084784330   16.66921619829085
C         4.26383651363817    5.63127228324759   16.84151035129851
C         4.29551892238622    8.21938968097328   12.11228461517467
C         5.45015287482419    7.17540241654814   12.15552586992815
H         0.53177635416396    7.25283269181435   15.94394974350933
H         1.21379044093060    6.26392819407662   14.64222837959591
H         0.77260518603845    9.26721786582589   14.73904589418338
H         0.25179631523469    8.08980607473336   13.55747804626152
H         2.94345657182746    9.45194739072609   13.90860290082456
H         1.91620231315657    9.35945962330895   12.46858977297213
H         2.14725411585122    8.22826758107504   17.58269649561333
H         2.39107782488915    9.24350762030305   16.15325482933541
H         4.71328499929374    7.81991904631048   17.51683252188636
H         4.19968042036749    9.48171697684358   17.85619400639284
H         2.22403544031993    7.37274657334594   10.98867772620078
H         1.35913727029545    6.68121625419812   12.36958852553754
H         3.99898663994712    5.51664284604274   11.39339002875030
H         2.39469958070298    4.96080339474436   10.88701889507716
H         2.32048101875074    5.12249953612448   16.15461469404551
H         2.26575339860601    6.10831737649151   17.64140064858092
H         4.68680394049957    9.10096820216942   12.62125750823297
H         4.03637709197313    8.48049015257537   11.07956590008578

