90
CSD_code = QUBHOM | q = 0 | S = 0 | Stoichiometry = C34H52NPSiZr | MND = 13
Zr        3.44603115112523    3.64907861534454   20.48731048334730
Si        5.44095465035722    6.74992909137494   18.78607779518583
P         1.15982097104356    4.49829317312641   21.95930929140875
N         4.62824898930868    8.11265689001264   18.07336717592348
C         4.20128491836310    5.33931922937556   18.96371053583426
H         4.43010056486268    4.58136346436795   18.21344800160459
C         2.81610143998214    5.61228193675849   19.13530712362335
C         1.73403123196732    4.74584793320623   18.83363792902768
H         0.74491532980116    5.17965377689238   18.94866391204433
C         1.76345427217536    3.34768528509011   18.64179790259039
C         2.89699109581926    2.53329695230029   18.39686981319492
H         3.71474312638339    2.93503506816963   17.79629875411496
C         2.64778276921379    1.06339189332240   18.05567120292526
H         3.29988778244877    0.40305457152779   18.63609804768836
H         2.88914936865694    0.88356641206158   17.00099493444064
C         1.19496239518768    0.68366415471440   18.31091723370102
H         1.01954110579861   -0.38515702251379   18.17381661266341
C         0.75981097444355    1.33002266897096   19.63598962897575
H        -0.13006147281466    0.86959272843601   20.06140535819452
H         1.53402204705990    1.43853946705304   20.40706982257679
C         0.46426217738743    2.59027909076839   18.79919592514057
H        -0.37122024790023    3.22853051250525   19.09637163212896
C         0.23984320519076    1.65695394218232   17.57815290389312
C         0.63189156407727    2.18026125384386   16.20307310957416
H         0.72174617321098    1.35331769596130   15.50095358889097
H         1.57050738507023    2.72375979633028   16.22770450987170
H        -0.13707523384363    2.85754116256403   15.83570028702578
C        -1.18693994621279    1.12035464833564   17.50004012231592
H        -1.87458632701753    1.91998903621528   17.22950256991883
H        -1.51815267113486    0.69234913861287   18.44170765117455
H        -1.24886043711491    0.34636181511915   16.73715803263785
C         2.45254507392382    6.87816279052904   19.79722902807188
C         3.06525912883615    7.20927806811926   21.00890650904025
H         3.77625036869199    6.50794644783748   21.44121809210372
C         2.76236696615601    8.39578787159198   21.65015078354614
H         3.24983340120447    8.64657463555386   22.58283833494276
C         1.82769172964320    9.26591257922809   21.10876726406401
H         1.59146292155920   10.19268022507880   21.61026016732656
C         1.19535629892038    8.93428293619352   19.92158141581886
H         0.46240232817711    9.60580634291906   19.49686610718216
C         1.50054510213872    7.75241280956637   19.27257519535239
H         1.01132291186550    7.50701879885565   18.34092260615545
C         6.42209846827812    7.40822969035343   20.28872623188870
H         7.01134903356935    8.27074067941867   19.99818561293967
H         7.12086301650392    6.65780977167110   20.64181627905847
H         5.79632897278316    7.70662626851106   21.12149038370621
C         6.79233489727848    6.03914610427725   17.61514236042763
H         6.36838305070410    5.66111894830764   16.68976511099506
H         7.32723513902075    5.21819918859055   18.08237019827610
H         7.52668595114024    6.79489089963285   17.35406038327034
C         3.84321050301909    7.93364913242675   16.87678889320201
H         2.96235058881112    8.58554587480823   16.92715528936083
H         3.49049916523800    6.90021387247675   16.86475204066892
C         4.58889161625277    8.20517190018790   15.56828674205268
H         4.79258667115267    9.26432156167195   15.44222476992467
H         3.98663145337475    7.87245390827134   14.72572784132203
H         5.53137801215532    7.66705705401308   15.56204704230363
C         4.75692283858746    9.46566963109876   18.55625882343821
H         4.84702384405136    9.43205935779735   19.64349906567429
H         3.83460616887668   10.01031050916980   18.32265877794699
C         5.95385994063883   10.23568717709876   17.99103660646309
H         6.86261593937424    9.65547961419751   18.12428304915669
H         6.06174217505266   11.18459030304539   18.51212599205500
H         5.83122119755265   10.43777444557817   16.93152709124995
C         5.41769562648563    4.29467967141893   21.66022015273325
H         6.03417003932451    5.18219606689875   21.75433434165713
C         5.80270621533414    3.39141681803308   20.59718257626422
H         6.64065793214222    3.72643626737632   19.98938693754893
C         5.27593953077433    2.12842833521679   20.29620839652008
H         5.75194615472426    1.58369496042477   19.48192083585647
C         4.21705178111158    1.41490703068754   20.97858412909497
H         4.05298853076178    0.39394452331248   20.63884118692990
C         3.47566530568861    1.80271685385873   22.10494379479172
H         2.79928420447833    1.04738664944570   22.50830150969981
C         3.54336016237977    3.02422224384949   22.85220980247401
H         3.00927399827204    3.01151223783533   23.80011281815445
C         4.46094798496804    4.10298800803807   22.67230719352152
H         4.42752039589184    4.87844521910932   23.43821430874828
C         0.17809375439154    3.09061427961464   22.66321936545806
H        -0.53256727851111    3.46053448292814   23.40239312141507
H         0.83219091790063    2.35781057604564   23.12815820976660
H        -0.37036370333719    2.60765947669388   21.85650643266222
C        -0.32731421075783    5.48345938524922   21.41425437074572
H        -0.85560000899142    4.96543249998296   20.61715797873122
H        -0.00939378567360    6.45767573854042   21.04833223643668
H        -1.01258443077536    5.62464935849983   22.24966383707014
C         1.42026413666917    5.48755186996103   23.50445845398243
H         1.69768934953998    6.50159822057410   23.22234977294299
H         2.20846580057605    5.06477048398899   24.11866062324147
H         0.49646836923571    5.51994496231184   24.08181163293149

