80
CSD_code = QUBHUS | q = 0 | S = 0 | Stoichiometry = C28H48NPSiZr | MND = 13
Zr        2.16873857184862    2.79953032300362    6.19839648431152
N         4.22311037005921    2.45240128952360    2.09971289242972
Si        2.89915240852746    1.50813080777407    2.70353318917476
P        -0.57692330835622    2.23550767870556    6.29561860714965
C         2.98503778354579    1.26814625352125    4.55561758185213
H         3.97343588163889    1.18165196968429    5.00605015585022
C         1.96310331459739    0.43950837086347    5.07936188499690
H         1.21799277080783    0.08572216730888    4.36465203732992
C         1.72986648829872    0.04354742693535    6.39719957846389
H         0.91689034434225   -0.65731945850077    6.55403462451608
C         2.29736754343441    0.58997743764198    7.57081116809479
C         3.46603685389991    1.37524482954744    7.66496424207058
H         4.27696108634155    1.18963634140281    6.95654470787064
C         3.99656847385594    1.67123521110865    9.06915532226654
H         4.24249650742290    2.72966783863219    9.19423874215478
H         4.92837299579329    1.11630624511169    9.23205801139591
C         2.98025351074947    1.26743363312009   10.13126650987258
H         3.29565249116069    1.56636364776891   11.13294392728693
C         1.58309213224106    1.69338594299161    9.65009297526952
H         1.52751313668930    2.60344886208687    9.03834443423252
H         0.85025254015412    1.73767477478456   10.45391561223128
C         1.56626312103175    0.36372495319220    8.87318244089277
H         0.61239431713929   -0.15277119563340    8.74487018394237
C         2.54449261638030   -0.20521470925005    9.93703787520369
C         3.57759145778460   -1.22537047020040    9.47816479785894
H         4.37898062902040   -1.30032241108275   10.21115119179583
H         4.00456335500637   -0.96574523041127    8.51522542295147
H         3.10969524109375   -2.20361330176371    9.38306599991693
C         1.82608253061679   -0.76633025939002   11.16123763629875
H         1.29728811439784   -1.68129308563462   10.89894285075363
H         1.10675792221023   -0.06530418400487   11.57437752013638
H         2.55095873252189   -1.00354530904056   11.93800258600278
C         2.78164154446504   -0.17301961141351    1.76088019171322
H         2.79718003579226   -0.01738990792532    0.68567367150408
H         1.86552969964253   -0.70500357581103    1.99810745329406
H         3.60815092670177   -0.83423225894274    2.00342843181286
C         1.23617656034410    2.40231920591039    2.34925221632499
H         0.73814482301672    2.62650511271112    3.29474744661733
H         0.57193045764242    1.77820896386862    1.75899429203303
H         1.36432110499680    3.33492272726930    1.81125727935184
C         5.54580681837106    2.36628475560997    2.67238800786184
H         5.45014756870818    2.40067564112590    3.75892693955761
H         6.12662828880117    3.23876218008915    2.35738436298080
C         6.29963298425618    1.09218983379086    2.28566349028326
H         5.77613908052265    0.22299136602088    2.67375854486543
H         7.30693989360413    1.11121550962502    2.69508667962244
H         6.36718328163337    0.99837053093181    1.20455131466686
C         4.18364876815393    2.96162018373603    0.74707326956748
H         3.27537428956849    2.60041824728408    0.26337000804757
H         5.03636559839393    2.57965969112845    0.17244554827970
C         4.19284117151756    4.49063848651644    0.70041842717573
H         3.31841560336491    4.88633035775833    1.21002000075987
H         4.18208384374383    4.83378114400297   -0.33153332250541
H         5.07935088209797    4.88826383212801    1.18781557513099
C         2.80450098493241    4.45105622076067    4.60484037409988
H         3.06268961182043    4.45593314573045    3.55118269573423
C         3.92114545411904    4.24395070494842    5.49746312223158
H         4.88826896266147    4.13230906873927    5.01308303465186
C         3.93080046718008    4.27910906544190    6.90263704285629
H         4.90904127796452    4.18491145753889    7.37407615384350
C         2.83328193971482    4.50653551884661    7.80077787946611
H         3.09331229112307    4.58521762325067    8.85531828480230
C         1.47600065880303    4.74860246058401    7.49192903800732
H         0.83966670475646    4.98334883738332    8.34690417416037
C         0.84749779711950    4.83745313187768    6.21567290699067
H        -0.16391850388695    5.24048279091414    6.22185356727701
C         1.46809735866638    4.74223768061883    4.92269024209035
H         0.81879075094512    4.97238597811889    4.07856463836175
C        -1.48592104953826    0.60620749965701    6.29218728839044
H        -2.56221527531072    0.77110866403944    6.24315549268998
H        -1.25787963817551    0.04763495299192    7.19681294659951
H        -1.17951151346218    0.01566208512806    5.43111811517121
C        -1.61319684438536    2.97349562636756    4.94500059436791
H        -2.66076327922697    2.99659014412132    5.24608058436502
H        -1.51523459718477    2.35295628289586    4.05477880587216
H        -1.28636685682381    3.98062176063299    4.70382643233701
C        -1.46248595975644    2.91854254414828    7.77470112220646
H        -1.26553554500598    3.98166563061660    7.88104558654255
H        -1.10268637013385    2.40593160605125    8.66599775511592
H        -2.53665198650323    2.75822071338258    7.68072109842334

