46
CSD_code = QUBJIG | q = 1 | S = 0 | Stoichiometry = C18H20N2O5Re(1+) | MND = 6
Re        7.87447651943345    5.30945036800892    3.71043911664890
O         8.97968692041316    6.45382150530056    4.12878299821308
O         6.79071439777946    3.60195180726817    2.46404851643619
O         6.32537427837902    2.99095171754290    0.36261780841153
O         7.59319621396582    8.20606472225726    1.45266655467498
O         9.63712072996529    7.33200242185622    1.09884606879214
N         7.09209059391750    4.03719437485450    5.23604143909855
N         5.77040893701358    5.74979118171700    3.79391319943083
C         9.53054360244477    3.93160166147960    3.35282560996354
H         9.95444937379950    4.07208032864893    2.36113379514079
H         9.16558762245748    2.90939114932001    3.43233701124162
H        10.32562878598776    4.08102215343951    4.07975473063100
C         7.26263358874163    5.37527326926038   -0.73731624478583
H         6.24808942850813    5.21808721802347   -1.09701866371834
H         7.91711014220575    4.69625454102322   -1.28089540313097
H         7.56398039697306    6.39689528187570   -0.94468668767709
C         7.85205264843575    3.29426217277086    6.03381791137120
H         8.92083843310253    3.40286716786451    5.91875075779243
C         7.32657671101101    2.41935273124425    6.96894724682494
H         7.98535213968868    1.84212310173140    7.59635321496584
C         5.94827041902006    2.30124928612188    7.06704995252572
H         5.49940795077325    1.61398182700977    7.76679576361554
C         5.15351866274121    3.09524971144185    6.25873511598193
H         4.08056426840088    3.03405025544659    6.33091207421078
C         5.75228607475478    3.97479054689475    5.35965092564565
C         5.00541074823652    4.94738044626826    4.55455968180488
C         3.62371886094218    5.11283968897615    4.60737217551430
H         3.01251305342611    4.45317622637490    5.20034462585314
C         3.03914806430426    6.14572127603272    3.89324726953506
H         1.97018461079003    6.28843843965771    3.92207132640617
C         3.85072265985196    6.99667405951070    3.15843014576394
H         3.44235165195278    7.82953637932613    2.61053125046616
C         5.21570115905647    6.75760720455721    3.12970136051652
H         5.88106025856455    7.39538270740341    2.55840137741549
C         5.81695660335696    1.74783502595113    0.83776284722452
H         6.58208645578698    1.21693456104166    1.40673496432556
H         5.53857237559722    1.18067408054027   -0.04639400454522
H         4.94486295484910    1.91093578879303    1.47412547926717
C         6.80302389929891    3.83406111180984    1.24090122683273
C         7.34293029612554    5.09170024931194    0.73006784561873
C         7.88509350823726    5.88057337976711    1.67429670540624
C         8.35510743233633    7.26858514456996    1.38882967461788
C        10.19185092863997    8.63627400830694    0.92430864585053
H        11.20186247984740    8.48634469210312    0.55388226484698
H        10.20870390135074    9.16033127108359    1.88074785066328
H         9.59807925753334    9.21113375621222    0.21177447430940

