46
CSD_code = QUBPIM | q = 0 | S = 0 | Stoichiometry = C16H20N6NiOS2 | MND = 4
Ni       12.28155486670967    6.25370805843623    5.78555137438577
S        12.35673791778869    4.07015413525014    9.56340358575929
S        16.27497406714005    5.68275958113202    3.77593492722694
O        11.59365357329948    7.34385162445573    4.47359771341599
N        10.81804774500276    6.38018347191804    6.87908997956082
N        10.91685865109030    5.66278843926220    8.04578074441010
N        12.93114699259174    5.17517199190345    7.10700380353999
N        14.76011192939538    5.00959504358724    5.78614837785353
N        13.99172704154601    5.85214077945442    4.99356232194932
N        14.02010815111014    7.00704434404035    2.99131192491338
H        14.57530175491824    7.58687274821197    2.38703025535654
H        13.09731212845411    7.34761616334710    3.26061855066533
C        12.05611952844148    5.03686911060373    8.12778517888583
C         9.70692381509650    7.05809829085914    6.67075540241069
C         8.63166294513388    6.99750265021902    7.71423004751218
H         8.36890181503185    5.95851881460520    7.90371977623556
H         9.00939533356289    7.41042565095471    8.64810383118595
H         7.75051890354865    7.54865842254227    7.40209912794683
C         9.51454703004840    7.82571555567626    5.50890156912755
H         8.57108247196637    8.33395843657889    5.39894224154846
C        10.44493578298441    7.93248959685175    4.48866174098172
C        10.12399085200189    8.74825549733055    3.29295168854624
C         9.40414133492493    9.93689329780532    3.38627465074609
H         9.07980881761080   10.29320535060513    4.35228004628865
C         9.12776035870719   10.67642493584989    2.25147043732955
H         8.57223725197757   11.59919624517682    2.33525218353514
C         9.56274094249223   10.24191107752817    1.00995783920588
H         9.34128829678522   10.82069428925537    0.12541670443117
C        10.28485911818218    9.06443704032044    0.90838248859599
H        10.62552692169896    8.72027441354944   -0.05746216493899
C        10.56906341336048    8.32603996611035    2.04131448179200
H        11.11954445919842    7.39947366273530    1.96405706179386
C        10.80801564167061    4.36203630338959   10.45694680453736
H        10.88578861281799    3.81573347856939   11.39153752530307
H        10.69881195313945    5.42595589875296   10.63720114002553
H         9.97974954764371    3.99420566724613    9.86102344502101
C        14.17858153163303    4.66803070047702    6.88895065885010
C        14.88754988231095    3.76280495882801    7.83663084138466
H        15.85493630382143    3.51060664149243    7.41319482139009
H        15.02346175382162    4.25199359671724    8.79954237334334
H        14.30843035615216    2.85537875514623    7.99853027658311
C        14.62011375626292    6.25800920545952    3.93311126540333
C        16.74152778135900    6.37674193423521    2.15252322137093
H        17.72574126683786    5.97334858210908    1.93970407285351
H        16.04142175432056    6.05037121305929    1.39011945044360
H        16.80318564641062    7.46055437836379    2.20085621129451

