57
CSD_code = QUBPEI | q = 0 | S = 0 | Stoichiometry = C24H24N6NiS2 | MND = 4
Ni        0.00000039355867    6.91753774998583    0.00001588309629
S        -0.08848954683676    9.32288573123307   -3.63451496035041
N        -1.49751139420114    6.87850904726677   -1.02012410501906
N        -1.40235968060241    7.62305717807496   -2.16773122982608
N         0.73394744929776    7.96412948392205   -1.36683300337118
C        -0.24807858057978    8.19296007078392   -2.29887337116795
C        -2.62624916199104    6.22771379120188   -0.82350106105188
C        -3.68823321530837    6.29212773040018   -1.87908126991595
H        -4.55005160705858    5.69148209272178   -1.60668792127290
H        -3.99398192713598    7.32712358214828   -2.02284177510215
H        -3.28139268101907    5.94213440926867   -2.82609330299272
C        -2.87579229120068    5.52867918288185    0.37371596464457
H        -3.85931255396413    5.10425760141366    0.50156114402728
C         1.99840247474488    8.42484652699257   -1.43492344920708
C         2.55575916848364    9.00070703648273   -2.67998696159720
C         2.70332460800930    8.19145729887867   -3.80399332996575
H         2.35503950635366    7.16907235808895   -3.77219777938622
C         3.29671200364446    8.69199158622280   -4.94703821585281
H         3.40974516845492    8.05826049730880   -5.81419174145752
C         3.74542610598203   10.00152145352343   -4.98057097249248
H         4.20378387961494   10.39302375548155   -5.87671383508575
C         3.60923369968773   10.80750224424906   -3.86291863832062
H         3.96153061236478   11.82829553511907   -3.88631056201879
C         3.02662465687850   10.30846053969034   -2.71274735541215
H         2.91789374803718   10.93397665237415   -1.83898178503021
C        -1.81808322107530    9.38347085294419   -4.18228327153107
H        -1.85118268957237   10.10646285353207   -4.99107329569383
H        -2.11714812470098    8.40083979681687   -4.52930901742833
H        -2.44508121499108    9.69902348711727   -3.35554850763475
N         1.49750782277938    6.95657984194655    1.02015730039311
N         1.40234631583241    6.21206169308306    2.16778022421767
C         0.24806960082086    5.64214802997237    2.29892445628458
S         0.08848938272629    4.51226870818229    3.63460230649677
C         1.81807360088116    4.45175051271599    4.18240772104818
H         1.85117160264650    3.72880494983415    4.99123953200653
H         2.11711209417306    5.43440703570957    4.52938330059071
H         2.44509403591340    4.13616349360674    3.35570339894433
N        -0.73394915691184    5.87094637127338    1.36686887722625
C        -1.99838675554944    5.41018758036725    1.43493128786827
C        -2.55574034236202    4.83422224335418    2.67995096939433
C        -2.70354644490086    5.64343050408523    3.80395406776316
H        -2.35544203491538    6.66587802719189    3.77220183966147
C        -3.29693113917708    5.14276955399289    4.94694559454942
H        -3.41014704462421    5.77646545152373    5.81410082708863
C        -3.74540576643981    3.83315630582389    4.98042474731158
H        -4.20375778430818    3.44155562881707    5.87652771122466
C        -3.60898113987382    3.02721770535369    3.86277032362166
H        -3.96109787740694    2.00636131127918    3.88611713622045
C        -3.02637364633903    3.52638419320556    2.71265237976767
H        -2.91747021309932    2.90090528916102    1.83888141675908
C         2.62623823567110    7.60738768648200    0.82353855471038
C         3.68820043191713    7.54302833810082    1.87914485371283
H         4.55001543405470    8.14367692005702    1.60674801129816
H         3.99396263809822    6.50804148646569    2.02294983943612
H         3.28133409684720    7.89305025738400    2.82613518813960
C         2.87580272859187    8.30637681763099   -0.37370286873937
H         3.85933574008097    8.73076393727436   -0.50156127057860

