63
CSD_code = QUBPUA | q = 0 | S = 0 | Stoichiometry = C22H31N2O6PW | MND = 6
W         4.27080648339233   24.15788342762994    1.39528513795261
P         2.01892685425872   23.96152236190255    0.35196742988121
O         1.17002741663126   22.91650695132699    0.97173919608357
O         7.06533119932326   23.97177260957097    2.78982153534675
O         3.75245347274061   26.78165151917478    3.04060664485057
O         5.74116800586648   25.58025325628447   -0.98086441962563
O         4.47422641420972   21.37683406938805   -0.02997078531650
O         2.82737213890685   22.67151219455323    3.75691472154868
N         3.08280014702716   24.00613361777888   -2.21008845347569
H         3.34758155256243   24.91507706073376   -1.84317225266939
N         1.78549185164997   22.13291606733245   -1.54105152634335
H         1.23299567027661   21.89417043288683   -0.70828724663113
C         2.31154313441099   23.31855349453746   -1.39970845167330
C         3.75168982412728   23.62773787819829   -3.44808739207719
H         3.04317049412905   23.07527025145299   -4.07548816146191
C         4.17386320285351   24.89836676455987   -4.17286166475993
H         3.31034659166711   25.51573860134505   -4.39928273664724
H         4.67463934621326   24.64678354039486   -5.10371153646297
H         4.86383087517128   25.46941685976805   -3.55595163267303
C         4.97267055871124   22.75884229006843   -3.13897244184674
H         5.69953552036694   23.33191590253620   -2.56799009723171
H         5.44021412252781   22.42906183389973   -4.06299164999954
H         4.70072373347805   21.88348087800615   -2.55459941723176
C         1.74898240751914   21.13444170577475   -2.59309442190388
H         2.64161657542406   21.23036814967648   -3.21576264512649
C         0.50181414172881   21.34390126344444   -3.45178804368165
H        -0.39231610551436   21.22138158830688   -2.84565178357217
H         0.47616559496540   20.61845420215338   -4.26032000797501
H         0.49398061851731   22.34490540809164   -3.87647436924108
C         1.75013432304080   19.75977635219264   -1.93322946055809
H         2.62811361260470   19.64596176267706   -1.30215632117495
H         1.76121916165071   18.97919823392067   -2.68887445948426
H         0.86229438532476   19.63461215284248   -1.31759907774615
C         0.87351797179807   25.41655820824488   -0.15018856537987
C         1.59388072230213   26.44009228227846   -0.95982935241099
C         1.12027969272893   26.41691389888922   -2.22763092303071
C         0.06745159235117   25.42114620705224   -2.32609369343977
C        -0.12673011723012   24.85270988364249   -1.11308125141513
C         0.33412594685310   25.89267487751581    1.18893313848793
H        -0.17242896394285   25.07179395801311    1.69352599364029
H        -0.36813424279693   26.71325618500974    1.05002989594454
H         1.15455128201640   26.22893874290070    1.82370635533514
C         2.59683002644468   27.37043014098666   -0.37527988935413
H         2.10326473304678   28.10712806910234    0.26009563653167
H         3.13679750158787   27.90669305796136   -1.15282266026378
H         3.31435694093412   26.83020798247938    0.24524028058493
C         1.49880737947669   27.31584264518536   -3.35910192501076
H         1.40928697201056   26.80355239356233   -4.31521548052612
H         2.51475371761901   27.68913291918231   -3.25012084511681
H         0.82875643256908   28.17640289431702   -3.38560803004239
C        -0.67690048681092   25.16129332016063   -3.59426661703092
H        -1.41207760049110   24.37201082108182   -3.46418235041462
H         0.00710074735491   24.87184616045537   -4.39426904007786
H        -1.19767010039212   26.06311317040562   -3.91529323752187
C        -1.20515087426202   23.90830470018023   -0.70940433752570
H        -2.05322646831746   24.46752681320468   -0.31011322989013
H        -0.85832230746253   23.23838574179546    0.07136511383609
H        -1.55751117683255   23.32246328736393   -1.55631789865768
C         6.04089035083048   24.05051411415524    2.28616641626189
C         3.93946437943665   25.86089314864012    2.38913209711108
C         5.17315698151832   25.08237175190067   -0.11285089792509
C         4.46965354451250   22.40071886951738    0.48885004588525
C         3.35451209739440   23.21148107240267    2.90752104232771

