43
CSD_code = QUBPOS | q = 0 | S = 0 | Stoichiometry = C18H18N4O2Pt | MND = 4
Pt        5.96039220212699    0.31449609870887    5.71156752423422
N         4.78118375373858    0.88242219693048    7.14213960086857
C         5.04541028895903    1.81881505930090    8.13123902693797
C         5.83825255810184    2.93434794527251    7.84625095705166
H         6.22357074458869    3.06506750582393    6.84649649943695
C         6.11190673403078    3.85710120570077    8.83266502474044
H         6.72840069865419    4.71365743887473    8.60168463038809
C         5.59979606922076    3.71341114373553   10.11923133208881
C         4.79086025616949    2.61410428750954   10.39030349004840
H         4.38212285165299    2.48679702951605   11.38259007326017
C         4.50950454312041    1.68074922742530    9.41609713216551
H         3.89329813700872    0.82138465021108    9.62951963274777
C         5.88954903475122    4.73546904135060   11.17411844857065
H         6.89201591973869    5.14014878083893   11.05516072413577
H         5.79581861839724    4.30649719992155   12.16878042544476
H         5.18308754529083    5.56276552838615   11.09475274380738
N         3.62219450606685    0.24761028198220    7.27864070187111
C         3.43942105565076   -0.61196175436506    6.28370942683873
N         4.36392513970382   -0.76383604647281    5.30923104330331
N         2.37014837977425   -1.40959315429467    6.04219503976880
C         2.64722324373125   -2.09641895025416    4.88898061878208
H         1.95514537507423   -2.80211651043626    4.47797033389608
C         3.86958780441860   -1.68982938752160    4.44283253848888
H         4.41647492650090   -1.99464098522838    3.57379810621706
C         1.23300987857934   -1.56115866674688    6.91125782395096
H         0.98559170487248   -0.57403552799196    7.30954862706225
H         0.39528764443120   -1.93332643653995    6.31645875678718
C         1.54319047845389   -2.51793873505451    8.05922281494094
H         1.81118402519840   -3.49993871413326    7.67604074877558
H         0.67541964676266   -2.61766361138606    8.70451883380938
H         2.37411356639191   -2.13140577844763    8.64332881319792
O         7.11381584854771   -0.32160618433455    4.24319160314381
C         8.30629257774107    0.22186101786596    4.26571651602654
C         9.30373508746995   -0.04950541612421    3.32176534206778
H         9.09060720859707   -0.72963779341446    2.51096175670180
C        10.53132792603367    0.56262741863068    3.44564313661720
H        11.30386719908331    0.36136151089456    2.71807108488725
C        10.79418986088641    1.44042385171366    4.49898097074285
H        11.76674291865563    1.90496785594664    4.57069123941901
C         9.83401620678855    1.72211999227638    5.44609468979737
H        10.02761771348125    2.39842887660030    6.26487242106888
C         8.57573082122110    1.11993686067202    5.34245750904469
O         7.60296930034383    1.31704164665269    6.20202223686082

