75
CSD_code = QUBWIT | q = 0 | S = 0 | Stoichiometry = C12H32LaN3O23P4 | MND = 10
La       -0.19701788340437    3.01827918257118    4.28752156346413
O         0.38415174102034    5.03361196591224    3.38296088563049
O         0.87769729782439    6.50215368739337    4.82313418250047
O         1.95827642443034    2.87171054662243    2.93804712886968
O         0.06250510467931    2.22196185996957    2.23043375412671
O         1.81737882274122    1.16157052192262    1.70536746646066
O         1.63976856516049    3.80894448517465    5.41271568687272
O         1.12053244308621    0.99586383836877    4.46187306332699
O         4.03891118631899    2.06708842719511    4.66053111249043
H         3.39175009468320    2.43270622745134    4.01710560731307
O         1.95607909383190    2.94188322207934    7.83737192520961
O         3.71255662750808    4.36436337697967    6.75877422391556
O         1.50241224787455    0.09031003973434    6.86476981804148
O         2.83699542120086   -0.79742598638141    4.98035087357648
N         0.24416455380668    5.53560550172187    4.50037682095020
N         1.28717419439532    2.06625342703959    2.29643583498196
P         2.57939679497849    3.29363306652532    6.43019413280215
P         2.09710428988027    0.53018628924724    5.47422814623800
C         3.39597942772943    1.75722695585739    5.87512223442276
C         4.39130863667633    1.22835695519684    6.88249576060603
H         3.86779516461079    1.00461023169576    7.80714083783503
H         5.15506483560034    1.98142770626614    7.06548561957736
H         4.86137641308240    0.32491939284327    6.49931761285214
C         1.02335376745195    3.86828908137645    8.41384884338826
H         1.56709455438930    4.65253699120067    8.94188175994441
H         0.41476980569815    3.29296056544659    9.10878345801079
H         0.39139511273412    4.30946567318325    7.63903904912079
C         4.06252205018697    5.36773913606071    5.79716177997013
H         4.77838423746511    4.96208601777720    5.08300354230724
H         4.51298607087804    6.18131710636876    6.36302442833384
H         3.17543588168566    5.72465131018248    5.27244139898780
C         0.28240784299824   -0.66139666828797    6.89576495211523
H        -0.29612544456961   -0.30266561557471    7.74523393711476
H         0.51995357774424   -1.71948701160482    7.00996094811566
H        -0.28980737675096   -0.50399220617161    5.98022747899452
C         3.38975383657472   -0.90138941917222    3.66442265207854
H         3.42486102213150   -1.96496921200647    3.43296155455667
H         4.39579430376495   -0.48260832620009    3.65414819742304
H         2.77421581756001   -0.37913394076674    2.93106801159974
O        -0.58373519818858    5.03952182443194    5.27116806082359
O        -2.35824551976684    2.88685580179460    5.60693848184896
N        -1.69267453542137    2.10388670426749    6.28521991512717
O        -0.47282037550625    2.27109322126017    6.37000876563863
O        -1.99799870619410    3.90360015578629    3.14637188881687
P        -2.89061171720789    3.30626137511656    2.13361294112099
O        -2.25179330115026    2.98411141902457    0.72686198304392
C        -1.28636964999732    3.89654937259852    0.18511428637971
H        -1.79931141403829    4.66581918852168   -0.39345472088046
H        -0.63766422834194    3.30719834301145   -0.46044401693943
H        -0.70121251116889    4.35630972056763    0.98586355870111
O        -4.08661724575783    4.30860400321624    1.77690891545834
C        -4.61794985457553    5.15873943530613    2.79429804991428
H        -5.46828866647467    4.67179518488699    3.27180534545991
H        -4.93800192716911    6.07568494740853    2.30133907253636
H        -3.85297125462282    5.37730648924304    3.54016803481883
C        -3.67997579623030    1.74700591894953    2.67570242854415
O        -4.37451386021115    2.05737791682440    3.86226019494802
H        -3.75306751011814    2.41996169733320    4.53363697035543
P        -2.41447083249091    0.50718099638222    3.13061504906271
O        -1.46053335999379    0.96676250838673    4.16717605865921
O        -1.79596370947693    0.02959511021149    1.76307457206469
C        -0.60146517480110   -0.76197278374619    1.77954160854885
H         0.00708410820828   -0.44451847311590    0.93454216665408
H        -0.87090146617332   -1.81462452752846    1.68835541855725
H        -0.04482955942560   -0.59806462590475    2.70369222090440
O        -3.19748904640885   -0.79594042288465    3.62226501236074
C        -3.76797592243408   -0.88137759579179    4.93182804739991
H        -3.81507147568664   -1.94196270227195    5.17465233625580
H        -4.77056569267644   -0.45436998935835    4.92346567161608
H        -3.15770504618483   -0.35634407920777    5.66765354831708
C        -4.63403936756684    1.20895606187601    1.63245669610911
H        -4.07478783189195    0.98640637494149    0.72875240434224
H        -5.39603736577136    1.95525040245280    1.41748075746928
H        -5.11105755317797    0.30313959650718    2.00105271217185
O        -2.22922398952133    1.21085702636789    6.88808927973773

