52
CSD_code = QUBXOC | q = 1 | S = 0 | Stoichiometry = C21H25N4OPt(1+) | MND = 4
Pt        4.29442806909302    3.02896192220081    6.12166132755516
O         4.95658992168624    0.38007441840858    7.44257520514328
N         4.85979340490471    3.70704915341775    3.35095386372064
N         6.51981028397188    2.44693434383818    3.89923610681454
N         2.06630058961997    4.74888113524521    6.84429826876002
N         2.62461133685538    3.86461225199274    8.72801926162046
C         2.91247169933857    3.85538192985037    7.41962430122937
C         5.36474912139985    2.94761638847213    4.35687627729767
C         6.73059189793783    2.86433250398985    2.61544834237847
H         7.59396791889618    2.57648456505522    2.05192692343082
C         5.68117164845839    3.65611587327210    2.26654187309178
H         5.48191765037791    4.17449291413099    1.35180287667221
C         3.39336309247749    4.38501685725660    4.99487244416906
C         3.70605115984191    4.46639160935051    3.64298815437201
C         2.93802098385853    5.23076644744075    2.77951280924958
H         3.17630130315053    5.31044210075634    1.73071935002851
C         2.24862175920647    5.01338693229728    5.46975550050233
C         1.24506121049995    5.29191485464633    7.78409397239718
H         0.49307511049930    6.01943693451523    7.55973044305414
C         3.37765382670891    3.14043456367208    9.72422383791405
H         3.35870332512868    2.07463569402524    9.47780787596099
H         2.89812999581433    3.28486329411097   10.69402019692977
C         4.82611321654172    3.64080916311276    9.76692521400765
H         5.40833247763503    2.96920076621514   10.39868506865910
H         5.24176720780929    3.59868041110826    8.74739724224294
C         7.95272851770714    2.56978902989171    5.87053606434633
H         7.08460279979764    3.02778652055689    6.37485152385446
H         8.56676009165560    3.37876650097902    5.46989171103783
C         4.84109358864035    1.43611444046288    7.03405599924230
C         1.60136081784544    4.73600894973311    8.97299088173917
H         1.20781096802522    4.89857029994090    9.95508235931073
C         4.94321263202498    5.06856084742674   10.29519213100927
H         4.57661043841375    5.10611043726479   11.32294852343525
H         4.32395331652979    5.73734398415069    9.69264859814163
C         6.38682982384632    5.55349279899461   10.25494053369166
H         6.76143677535247    5.55261721084685    9.23318945102503
H         7.02356118473440    4.91002795188891   10.85715479677603
H         6.45841734495449    6.56495874428280   10.64458770220170
C         1.82699189944406    5.88759584253319    3.29483565917426
H         1.21987861860323    6.48339238188507    2.63202025652491
C         1.46104185017087    5.78626501838358    4.63163507731900
H         0.57751218195220    6.28972811870071    4.99080967825568
C         8.75938486876041    1.76813467015778    6.88682878726285
H         8.16125355864877    0.92676589126967    7.24301002561410
H         9.65056305174385    1.36191015238411    6.40552773147829
C         9.17046896666223    2.63486171745367    8.07062708591635
H         8.29286188704322    3.02743923413320    8.58050820029433
H         9.77894095292092    3.47271591859168    7.73920948805398
H         9.74986603526906    2.05332561082208    8.78177239475329
C         7.44056794035955    1.69644500077208    4.71845254581942
H         8.26975440910446    1.35558128840398    4.09642490150429
H         6.92443726808874    0.82027440968787    5.12327115504640

