63
CSD_code = QUBYAP | q = 0 | S = 0 | Stoichiometry = C28H30N4Pt | MND = 4
Pt       -2.83667074683727    0.78585383685240   -7.63123683726888
N        -5.53550819074821   -0.88106733585270   -7.98170864266954
N        -4.38793140068522   -0.39637199737151   -9.74078094093339
N        -0.23432564458543    2.48139016081318   -6.86909717854979
N        -0.58696533574293    2.00051205202648   -8.94020491683178
C        -1.10518896475416    1.85942709705613   -7.68190745387002
C         0.81064285270309    2.98941846646899   -7.59039375000176
H         1.61801724664638    3.52299990441391   -7.13156098949379
C         0.58616354385714    2.69056303321593   -8.89600799376797
H         1.16562938763754    2.91763990702754   -9.76734963259958
C        -4.40880207036154   -0.26690783137605   -8.37918013589557
C        -5.48641971920163   -1.07787536298212  -10.16900510697137
H        -5.67489656481377   -1.29709695801059  -11.20003979454362
C        -6.21239759046709   -1.37805450649431   -9.06095216668595
H        -7.13990941047574   -1.90471763154727   -8.96351746697546
C        -2.45553715091447    0.82393295103853   -9.55936928053350
C        -3.30505356260242    0.17609545464395  -10.44122308855724
C        -1.30372843625472    1.44060176295008  -10.01905397745164
C        -0.99674275953183    1.43975358500080  -11.36992768468452
H        -0.10781996226656    1.91636708894405  -11.75802886838614
C        -3.02773452387926    0.15519535106708  -11.79819900529639
H        -3.67318061462452   -0.34025708299391  -12.50946973580789
C        -1.87320724884384    0.79557590832654  -12.23766900666709
H        -1.64573872386685    0.78789170563831  -13.29357774376959
C        -0.36074012257183    2.54859203601176   -5.43538125949186
H        -1.42244267073152    2.64994681089971   -5.19453915484975
H         0.18367302848767    3.42595502775600   -5.07641495880057
C         0.16750088502348    1.27598957837755   -4.77105709965724
H        -0.40850197855722    0.43334910063237   -5.16121571139362
H         1.21904646647003    1.12830433398329   -5.03053482141909
C         0.00680859020147    1.34010190998289   -3.25557296334160
H        -1.03718926140066    1.55103329989910   -3.02050549601736
H         0.61333740874243    2.15658351961118   -2.85555500487284
C         0.41025062045516    0.02992230384073   -2.59309245725950
H         1.45217674330695   -0.20513541420468   -2.80118833754183
H        -0.20856269167108   -0.78175651167962   -2.96645575997524
H         0.27786376622939    0.09266474289080   -1.51585591816010
C        -5.99777074989327   -0.92244059090808   -6.61750716450632
H        -5.12782352010513   -1.04897664278707   -5.96726520234548
H        -6.67378527848201   -1.77233880896750   -6.50761536613292
C        -6.69380011405544    0.39033049668207   -6.24791326338291
H        -7.59717460280412    0.51257986585476   -6.85142522671353
H        -6.00121980671092    1.20193327609774   -6.48982640174662
C        -7.04160003182200    0.47019456877641   -4.76386605420025
H        -6.12651160417020    0.35921017426662   -4.18142152104802
H        -7.44447794447446    1.46441191907063   -4.56103340112286
C        -8.05936762904236   -0.57527225001668   -4.32294077437718
H        -7.64697860587863   -1.57835881423400   -4.39411864954911
H        -8.95640814717477   -0.52263490720800   -4.93729951092328
H        -8.34468532869530   -0.40473077264939   -3.28779924565475
C        -3.19112791373151    0.69393146654511   -5.66126124365744
C        -3.37118338176599    0.59742719633446   -4.45920377992244
C        -3.56495149703517    0.49601900443638   -3.06209458505901
C        -3.30878104930793   -0.70570564702031   -2.39537045212898
H        -2.97258890265415   -1.56180383766629   -2.96431387954679
C        -4.00486003039394    1.59776094722325   -2.32194008498224
H        -4.20896971371899    2.52811139659690   -2.83434906387577
C        -3.47969620405382   -0.79572719389392   -1.02872773149526
H        -3.27486570630648   -1.72910336090363   -0.52221921643832
C        -4.17547882286734    1.49739530293589   -0.95599086120164
H        -4.51466107495603    2.35617673080852   -0.39282651897169
C        -3.91156062173535    0.30348665890536   -0.30296507898238
H        -4.04288691147051    0.22980352488989    0.76712461895671

