49
CSD_code = QUBZAO | q = 1 | S = 0 | Stoichiometry = C23H19N4O2Ru(1+) | MND = 6
Ru        1.61334484764370    2.66984721837877    2.91590485560143
O         2.20114849029118    2.93188820273043    5.60280593616631
O         3.95531646747343    1.23048286666702    1.71853333561682
N         1.92628969117889    4.43856698626340    2.04685877952203
N         0.14647754958938    3.77116740296157    3.79967496195549
N         0.00307963874207    2.03381187845127    1.54055691479253
N         1.01269085404815    0.84552377950698    3.71009570473416
C         2.70422133723797    3.20890169182517    4.54116772626351
C         4.02729559209833    3.93774000907898    4.45610556714228
C         3.05171818326030    1.78858669822405    2.14828930344891
C         2.86393544786191    4.71328607396817    1.13074562081189
C         2.94119384846069    5.91891121400744    0.46153793367037
C         2.00689603218542    6.90879788018321    0.74200405164179
C         1.03878335826700    6.64301364103763    1.69195834161106
C         1.01950056146413    5.40608739115520    2.33450400064294
C         0.05291319427077    5.04729840974730    3.37382323016730
C        -0.87229826583200    5.93084831144784    3.92768472620926
C        -1.70193318579937    5.49457010246239    4.94494579304086
C        -1.58173833554245    4.18545923567352    5.38780680880741
C        -0.64457721162410    3.36315941727095    4.78716911551231
C        -0.49022481276859    2.74059941032094    0.53133889732533
C        -1.76378723996810    2.54223198867607    0.02615521015458
C        -2.56281868400720    1.57045665530128    0.61170274573178
C        -2.04905789978467    0.82312785661996    1.65662323845784
C        -0.74782495555284    1.06847460065506    2.09588301155033
C        -0.09604809984340    0.29915723558810    3.16683405249568
C        -0.56271780388169   -0.95166003147710    3.56853005614498
C         0.11184801677141   -1.64930415345330    4.55410395829842
C         1.24777507935413   -1.07736485402813    5.10735221495862
C         1.66223405482053    0.16235647569389    4.65237213297385
H         4.73883114549693    3.34118739548871    3.88748462782147
H         3.89846896430527    4.88901727342169    3.94010252714881
H         4.42039701813923    4.12061357125860    5.45561415500435
H         3.58580850168081    3.93161617950518    0.93128403777241
H         3.72049503571857    6.08015143419658   -0.26497869500712
H         2.03631028662445    7.86047533077426    0.23697294887594
H         0.29993757429270    7.38946188922603    1.93148498880621
H        -0.93166037244020    6.94966611656455    3.58321816971547
H        -2.41752433328885    6.16595410684774    5.39235329680332
H        -2.19476777785296    3.80885787000233    6.18989966563887
H        -0.51609001482454    2.34290830239702    5.12658758334556
H         0.16749542971726    3.48460448661280    0.09746750486486
H        -2.11900614821541    3.13363500556477   -0.80169623780973
H        -3.56641376261155    1.39530525923680    0.25721797467814
H        -2.65730359295734    0.07160064536757    2.13213716052292
H        -1.43192858350669   -1.38339699725873    3.10060308413617
H        -0.23572061269276   -2.61829445575150    4.87521470689171
H         1.81078141543672   -1.58289129087179    5.87439686788625
H         2.54385407656317    0.62930428247290    5.07056740746166

