61
CSD_code = QUCCOI | q = 1 | S = 0 | Stoichiometry = C26H30N3OPd(1+) | MND = 4
C         4.79014586593689    5.66122057966048    1.31822903247881
C         3.46673790824500    6.09305316369291    1.97719253354969
H         3.62109778959958    6.27341385659000    3.04237421794051
H         2.74414952156097    5.26909505455652    1.88039244413908
C         2.85742635809540    7.36094124919849    1.36667690244285
H         1.88142104405650    7.53937153423552    1.82013157567571
H         3.48985143153104    8.21808390340986    1.60556227433922
C         2.70964328459203    7.26334420965421   -0.15496890298939
C         4.08969887701643    6.91491109477223   -0.73673114290854
H         4.00636923409401    6.78654870391679   -1.81585115319647
H         4.79050091611476    7.73002927126580   -0.53722835907428
C         5.98304224527197    6.57497682762775    1.64326871978554
H         6.81556445884425    6.33633056017147    0.97610849142543
H         6.32474326463828    6.43934280148356    2.66951901097436
H         5.73340655319057    7.62895869179541    1.51620979891823
C         2.26127480525436    8.61276063623456   -0.71730500464241
H         1.28631975866206    8.87946911830895   -0.31853243361778
H         2.18657087296236    8.57057282608354   -1.80100925998101
H         2.96436192924173    9.39925231070183   -0.45301617783369
C         1.69886508845038    6.18681997000716   -0.55478734697149
H         2.03767376797790    5.19350307772507   -0.26860304174651
H         1.55124290163991    6.19345115256486   -1.63234531422377
H         0.73967332074982    6.37402458935951   -0.07929860563837
C         4.82414366695455    4.58348833729844   -0.83000069323498
C         4.74161418945539    4.53463594980469   -2.30849935993521
C         5.52114487012585    5.36493963252819   -3.11154221209868
H         6.19511485092338    6.07704285384698   -2.65837726392020
C         5.45355998952609    5.25636258124675   -4.48598269003129
H         6.06461985761575    5.89960276516744   -5.10135218411943
C         4.61064656362513    4.32898414343541   -5.09322778985325
C         3.84872622989685    3.49495519598255   -4.28319496419655
H         3.19525897568962    2.76392580713101   -4.73513276498737
C         3.91970065540513    3.58479158591932   -2.90617929950225
H         3.32668901342929    2.93060238849239   -2.28466207289033
C         4.55281785572115    4.22459906194292   -6.58256899357019
H         4.50793563071126    5.21241713549412   -7.03613901140559
H         3.68933871761522    3.64792425544973   -6.90239186847607
H         5.45064655297796    3.73116521007289   -6.95451971229905
C         5.68719547627521    0.70978011495443    1.13846305778701
H         5.66956443135225    1.06691367171923    0.11427143507436
C         5.78823530454067   -0.64074298298277    1.43841905617190
H         5.85525099436547   -1.37119411255712    0.64889222330765
C         5.79562142855351   -1.02209218722776    2.77146273561884
H         5.86453400158388   -2.06352442458189    3.04493159090313
C         5.71305354754338   -0.05010399487229    3.75518482164713
H         5.70848249397302   -0.34195718659428    4.79188521005311
C         5.62675866504745    1.29024079684709    3.37893368410167
C         5.55863784390971    2.41798951135942    4.32514208834655
C         5.70917695786830    2.23021393958277    5.69844149373404
H         5.87601006079314    1.24320678140383    6.09532538654798
C         5.65595176963324    3.31159611168803    6.55856545641621
H         5.77146078204842    3.17469139632632    7.62189026214987
C         5.45611241262120    4.56958935553191    6.01470229186438
H         5.40884795261775    5.44836622469306    6.63646437996609
C         5.31954627037911    4.68478338861652    4.64193276780628
H         5.16743620974269    5.66050571135776    4.20460884566540
N         5.36407438597004    3.65213002752077    3.80288254726135
N         5.60993183224267    1.63698164906020    2.08328947363147
N         4.59882202991900    5.69164613540095   -0.15227540149258
O         5.11679777450021    3.51610810240152   -0.22706983247612
Pd        5.22265855712109    3.70425988352702    1.76963904759499

