116
CSD_code = QUCFAX | q = 1 | S = 0 | Stoichiometry = C59H52BOP2Ru(1+) | MND = 10
Ru        6.16561677358435   14.09794862987133    4.08789742915144
P         6.61613052643927   12.47328630717155    5.69076241226937
P         2.49490315667174   13.46695250279739    1.77791613569515
O         7.05510821175869   16.24539350373125    1.11144880672492
C         5.32864358068137   13.52697400403639    2.15110325779064
H         5.52369582629827   14.09216948006652    1.24405805725237
C         8.38704752321696   12.39158316970630    6.11126671187142
C         4.12238615621130   13.73064913487728    4.10332771087690
C         6.18122783263784   12.47174658996415    2.52512760739071
H         5.70956269087725   11.60076119824490    2.99255249365663
C         2.99107717859814   13.73040192943738    5.01739104542678
C         8.14167581897419   15.29512839196239    3.17809026051440
H         9.01941845837041   14.93877206833790    2.64866165247027
C         5.81662591975888   12.59310281373867    7.32702144071895
C         1.45410615092250    9.18191085375931    0.55680512512541
H         1.20790665586388    8.17375212252542    0.26131017659613
C         3.98073982052782   13.56015743641636    2.76446495953428
C         6.21713527771399   10.72439061902082    5.33569762987849
C         1.10124594891562   14.29274967583863    2.57027818333194
C        -0.14424144293284   13.68992277756397    2.69580607950656
H        -0.30485887620902   12.69057815580354    2.31769253650243
C         7.40545452528609   12.12777689499678    1.79614434037758
C         2.07683470034898   11.76546356078334    1.31817123353788
C         7.96232665856166   10.85910885190124    1.99372631086786
H         7.47853923864919   10.17144504808023    2.67390253393423
C         2.61000338023541   16.08334213815075   -1.36584687988305
H         2.17547920455450   17.03212342399738   -1.64129117756839
C         2.83471969238267   14.27970192170365    0.19700003498836
C         5.21807978318585   13.78287674989917    7.71700209786075
H         5.23093897240236   14.61745865738861    7.03256697202478
C         8.18770680953929   15.25380027237421    4.55344837443472
H         9.07862509279469   14.90412144140123    5.07144082428005
C         5.79949853124416   16.36373333091341    3.38826647740728
H         4.88989495963705   16.84468598419769    3.02787052704723
C         9.27556213943524   12.16982786066903    5.05832287907417
H         8.88915866171739   12.04601257897883    4.05414457419865
C         2.76690907148846   10.69541951990196    1.87574412926487
H         3.54993202325554   10.87860488595586    2.59966843553700
C        11.12188869219318   12.30213094168216    6.58065394643414
H        12.18447694285150   12.26534280322924    6.76629132823763
C         2.27926148022589   15.50526158230826   -0.15211816129888
H         1.58685524096096   15.99834046553987    0.51553999645209
C         4.61343660593904   13.89062626623932    8.95650677864564
H         4.14669890822234   14.81866617551911    9.25097843450644
C         5.38075545590082    8.12952332168000    4.79608297799983
H         5.06001423999861    7.12006066225912    4.58777208941022
C         2.45173382844915    9.40373462312174    1.49240581207231
H         2.98912432166232    8.57212779998166    1.92223017308186
C         5.95985371083684   16.31599555268398    4.77241544483426
H         5.22287863853022   16.77385269048352    5.42985178242010
C         7.15081968419395    9.70301616571391    5.21486453191771
H         8.20410717697894    9.90956666368833    5.33596590021412
C        10.24457560864189   12.54337170765228    7.62448944375505
H        10.62350284720996   12.69745266052170    8.62367536963610
C         8.03472941449041   12.98650178247834    0.89030069066891
H         7.63888251857400   13.97160093823987    0.70154872272800
C         4.44408039828531    9.14436861089538    4.92599484801164
H         3.39041878727089    8.92702741302882    4.82569115510360
C         3.71728430191981   13.63566807357133   -0.67005718922206
H         4.13443120805800   12.67542467707526   -0.39496210536594
C        -0.95717121938415   15.64886434924313    3.82107789645162
H        -1.76102653324551   16.17625633465073    4.31067260694865
C         9.18651064767927   12.59560426142522    0.23378131950900
H         9.66007428717465   13.27666279442399   -0.45783262757741
B         6.98631984006997   16.02824367397868    2.45198641722866
C         0.77585994044948   10.25098193247780   -0.01052020454841
H         0.00675796133567   10.07433073049914   -0.74668720457994
C         0.95891764873625   12.67070771324358    5.79121705492313
H         0.25439082504833   11.85459624273457    5.72844946259842
C         8.87923312971797   12.59048401539595    7.39559431154645
H         8.20032623376667   12.78234544165526    8.21410413362941
C        10.63557415924931   12.11679618206705    5.29487385976053
H        11.31672226406891   11.93721298931791    4.47633411715190
C         9.73741202924877   11.34428429898936    0.45733933660008
H        10.64034455577685   11.04781714639999   -0.05412794564642
C         9.11564759020585   10.47446908527427    1.33813948929231
H         9.52927762542491    9.49246977846167    1.51348763857062
C         2.05419047072169   12.69396340477392    4.94977929758951
H         2.19695818728801   11.89250139414517    4.23613496059972
C         0.28717015408307   16.24790983957530    3.69855811491106
H         0.45187771700594   17.23909474834623    4.09251917749883
C         5.21383185762022   11.61855593387956    9.43922917883713
H         5.21690911425544   10.77550907601735   10.11373889524722
C         2.76807125159105   14.75630398066857    5.93637361813258
H         3.44902631433709   15.59137912922817    5.97107839508644
C         7.08930608885515   15.69926815233113    5.36210371979284
H         7.24376460285537   15.77837878118550    6.43650869933103
C         6.72790311539691    8.41037778119292    4.94658772412876
H         7.45728341998245    7.61924490872764    4.85741958122991
C         0.76021080802005   13.69088526490046    6.70503599083885
H        -0.09563226979708   13.67272857283322    7.36169421663787
C         1.31859004134557   15.57321065527349    3.07525076864878
H         2.29981236764192   16.02088088418405    2.98928308002947
C         4.86084941215716   10.43357818478828    5.19511162182325
H         4.14551559345134   11.23638187801548    5.31817486495937
C        -1.17056818800651   14.37430647533732    3.32204454625402
H        -2.13930647918235   13.90980216306001    3.42334698139271
C         6.07554284431860   16.93506458085634    0.37205897868714
H         5.95821312366156   17.95083931115519    0.77150952357542
H         5.10423413019425   16.42304234872700    0.46075252242911
C         3.49171634725613   15.44726557471618   -2.22465023099948
H         3.74501247123362   15.90218380053324   -3.16965594150717
C         1.66377749408117   14.73903572480399    6.76402897157212
H         1.50394008488930   15.54844904881044    7.46050391358390
C         5.81567302220785   11.50680741190282    8.20017212253150
H         6.28967941129748   10.57978571326363    7.90928074136935
C         4.60851041099539   12.80717567175424    9.81803305474377
H         4.13676533671774   12.88693031853621   10.78554904842358
C         1.08835841290462   11.54505504409355    0.36146752663673
H         0.57768082445538   12.38691036641345   -0.08754251831647
C         4.04484400875527   14.22396438982781   -1.87671401179276
H         4.72809627311384   13.72672802423556   -2.54821845834187
C         6.49997025847123   16.99478551284410   -1.08825065740993
H         5.76012269599658   17.54016031690508   -1.66714485058325
H         6.59860920106222   15.99018559284338   -1.49257202859143
H         7.45969243851262   17.49714700557339   -1.17195417063078

