93
CSD_code = QUCFEB | q = 0 | S = 0 | Stoichiometry = C49H40BOPRu | MND = 10
Ru        0.83353263075627    4.81783707128739    7.07121944790040
P         2.80399636294855    4.98346745858666    8.30853670843070
O         3.68849122147051    3.29283243240866    4.95782883997950
C         1.26148924009089    2.65938850388682    5.72462907228333
H         1.42872787146348    1.61843576535311    5.99119160506369
B         2.37945881287044    3.59587902850526    5.20862581392902
C        -0.05117829308763    3.07426158220925    5.69756722733797
H        -0.84909431872569    2.37247628621534    5.93973663176462
C        -0.43703130589787    4.39432661599623    5.29944166583193
H        -1.48952368794619    4.60170849530344    5.12078974321586
C         0.52900479509262    5.33811827504358    4.89939295802615
H         0.19047015908873    6.29767934079346    4.51105335011540
C         1.89553788639372    5.05790968668503    5.03176288287873
H         2.57558824590472    5.84699884049056    4.71529209762940
C         4.22084029381931    1.99264159138825    5.00858543909504
H         3.83669345693295    1.44996034661312    5.88033569582210
H         5.30518544641471    2.10536161095140    5.12638597190373
C         3.91042597660631    1.21325114696252    3.73417436280337
H         4.37152745450824    0.23006326364710    3.77830479536375
H         4.29248971788327    1.74708218478650    2.86745395229937
H         2.83453144383709    1.09896713230524    3.62232173847881
C        -1.10596656951962    4.74705126091589    8.05719735400976
H        -1.82928558344484    4.02800712821225    7.66436583157608
C        -0.12738891695865    4.23827005374728    8.95381342445567
H         0.13335589314954    4.84896773768464    9.82332150843038
C        -0.01199859749255    2.84944965665512    9.16358595224033
C         0.10145540258562    1.65674112202139    9.34693430165666
C         0.53344421659651    6.81883244103550    7.41305886137245
C         1.34904843664153    7.84923909584734    7.01629192496693
H         2.30073848166962    7.65056365585952    6.54152782589572
C         0.97943530993729    9.19084293316805    7.21384059714499
H         1.66462030876727    9.96799054877217    6.90301600707094
C        -0.21839223876786    9.52099361124394    7.78570106163331
H        -0.49557825221037   10.55490699930152    7.93556868994888
C        -1.12235936053930    8.50517930938394    8.15613534274221
C        -2.41657822421207    8.75570988112427    8.65850719316247
H        -2.72738043676704    9.78062391020462    8.80587817493769
C        -3.27684728924774    7.72507972260142    8.92448833833633
H        -4.27241800152240    7.93188380967333    9.29093731290314
C        -2.89131763553867    6.39246821103853    8.72078956265691
H        -3.58936261118270    5.59354133145783    8.92936408530906
C        -1.62401678983848    6.10877689405055    8.27333222619408
C        -0.72477325425645    7.15820923981357    7.97173139745454
C         0.38924322044239    0.29351241832030    9.53910759334109
C        -0.29799478541398   -0.68480062066657    8.84791448348797
H        -1.09547773743075   -0.40111093891222    8.17587489690821
C         0.03258586913651   -2.03357438527492    9.00503238588869
H        -0.52173660914892   -2.77950165470875    8.45362963816041
C         1.05195117140156   -2.40834888728745    9.83853744368093
H         1.31467649872393   -3.45045733962684    9.95201268916380
C         1.78165229865445   -1.44144160389361   10.56274572781880
C         2.84745048564332   -1.79713075969222   11.41614839642011
H         3.10171423894713   -2.84311656181447   11.51648293875154
C         3.54473604430146   -0.84269526849604   12.10217861760874
H         4.36203193037148   -1.12537526858748   12.74996049334627
C         3.20138963373784    0.51111521486692   11.97522321258413
H         3.75719927358341    1.25454399704752   12.52784155062139
C         2.17176690843195    0.88962869929745   11.15871122028264
H         1.89989700894767    1.93088353795559   11.06051144163645
C         1.44511839324845   -0.07058588416134   10.42810799681318
C         2.65991233385625    5.36528853061580   10.09639206146544
C         1.88117724664194    6.46575104102004   10.45895966225888
H         1.39371244535726    7.04395204414533    9.68407134162847
C         1.71990583861149    6.80440260200369   11.78911916914495
H         1.11678482721773    7.66003420624975   12.05489964686893
C         2.32316541404431    6.04158891860036   12.77714996963006
H         2.19439866249676    6.30182944921715   13.81720304554359
C         3.08469587912624    4.94117333244319   12.42560162190935
H         3.55007745755301    4.33984359714460   13.19300576629136
C         3.25548475256562    4.60185042445635   11.09337694166123
H         3.85144035728474    3.73892791523465   10.83647998851044
C         4.03526146111501    6.23753200936829    7.78933419927780
C         4.28215712111308    7.41069007299123    8.49340501876234
H         3.76247197725460    7.61035946460550    9.41824911885163
C         5.19429983993278    8.33351992203545    8.00980076864848
H         5.37646966686132    9.24318858979555    8.56334354453045
C         5.86735319483777    8.09760730371736    6.82361115861807
H         6.57413542963147    8.82272519775696    6.44742325630482
C         5.63106982842908    6.92620477234002    6.12107445164418
H         6.15513703450016    6.73470267352535    5.19589915220660
C         4.72135657797095    6.00124732434024    6.59788798463563
H         4.53788562663961    5.08857756218880    6.04906611246977
C         3.89592431859784    3.51210274401691    8.39545869563075
C         5.27220260917928    3.61506977654230    8.58367942159839
H         5.74222693817153    4.58689582826887    8.62924561678738
C         6.04091836890250    2.47381032981208    8.72115840102886
H         7.10829678000662    2.56315119089607    8.86297537805967
C         5.44987441239671    1.22080664077346    8.68527902913020
H         6.05418817111730    0.33295903893905    8.79805386053740
C         4.08156651899886    1.11174166670253    8.50997907993916
H         3.61343219293388    0.13820312843716    8.48933060424519
C         3.31137050581231    2.25261266007470    8.36490028825124
H         2.24234467074983    2.17523013290092    8.23284794586498

