50
CSD_code = QUCHIH | q = 0 | S = 0 | Stoichiometry = C20H20MoN4O3S2 | MND = 6
C         0.37838195260158    1.63339075149570    7.07612259081462
C        -0.46334303361577    0.94765338162162    7.96346910471002
H        -0.41514629851989   -0.13294085147732    7.96127269818866
C        -1.34235070314116    1.63062690110423    8.77375637485575
H        -1.99969878603524    1.08579782286670    9.43477575572719
C        -1.39073538686052    3.02014886777063    8.73397339656267
H        -2.08901464811010    3.55501136343647    9.35917058022331
C        -0.55385242641716    3.71440876969550    7.88959575850593
H        -0.62307736188411    4.79042281051396    7.85379843039112
C         0.34814346653982    3.05201865632679    7.04373630392860
C         1.22564318871943    3.79884091775986    6.16563455836357
C         1.48674088603473    5.24830777965057    6.45977992548210
H         2.44035564786044    5.53622763074361    6.02357633036384
H         1.49703493912509    5.43302767066982    7.53017648994048
H         0.70973679634887    5.85973645327408    6.00179517893998
C         2.87119648828556    3.63305771026605    3.19030980696751
C         4.04799038982007    6.13099568632141    3.30589452747818
H         3.02925012212801    6.42291557836903    3.55266221264299
H         4.57330646851818    5.80760126745182    4.20252248879311
C         4.78134345448152    7.21111370140090    2.58293523652628
C         4.09824872138624    8.07909718509977    1.73906290801788
H         3.03129880095531    7.96862393279879    1.61414278419886
C         4.77588747561800    9.07501274117218    1.05998287568220
H         4.23504961290440    9.74449861884814    0.40777384201510
C         6.14515848710083    9.21305476812190    1.21393506547635
H         6.67447101330951    9.99074935796746    0.68387404961334
C         6.83393798810288    8.34885728100252    2.04784221903195
H         7.90229370370505    8.45118851463578    2.16904540500877
C         6.15610795080408    7.35199689152731    2.72641005812260
H         6.69561304922419    6.67653954320257    3.37432870005882
C         4.23127550799244    1.39184276460422    6.05164449729663
H         3.84906513948818    2.04483524009342    6.81396651369820
C         5.45168332168193    0.79012030881423    5.96503369396748
H         6.30247618037062    0.82112764526967    6.61410611708839
C         4.23798184046582    0.24011494984717    4.24798298198545
H         3.92049745200750   -0.21570348000320    3.32880451565854
C         6.51911970664533   -0.73701096192144    4.30125618299735
H         6.16396605517092   -1.32371355428600    3.45674965589566
H         6.88992171347818   -1.40990170933885    5.07537656402635
H         7.33909857850396   -0.09671710368481    3.96930960408606
Mo        1.24001573232843    1.20254191978445    4.45051876623220
N         1.77811334157947    3.22926059416345    5.13482917617514
N         2.58695554157720    4.02788610254083    4.38014258121840
N         3.48369178154919    1.04057270303979    4.96911409780588
N         5.43883580253818    0.05819519502718    4.81308476381084
O         1.21529006375106    0.95579118881375    6.32326442939414
O        -0.25785405824664    1.81186744040693    4.15997980884049
O         1.45447168212126   -0.29672211608528    3.80394164460888
S         2.32361410537640    2.17483857878454    2.43015046359586
S         3.89270855373807    4.64369258980327    2.21418828461330

