36
CSD_code = QUCHAY | q = 0 | S = 0 | Stoichiometry = C12H18I2N2OZn | MND = 4
Zn        8.30578690353364    0.31164260285957   13.44270637325324
I        10.55639917701670   -0.28239814937986   12.45033479180472
I         6.38085983166757   -0.99889959912174   14.38635186717976
N         7.69696435991101    2.04765877642029   12.33566286739580
N         8.74444959990903    1.94909359276009   15.00272262606718
O         9.52519651356413    2.02574176245007    8.94300664507701
C         7.87670362622926    0.96095051128172   10.23086120625148
C         8.77703690660347    0.91649388274288    9.14467464453462
C         8.86740309893597   -0.25101203772431    8.39411882180036
H         9.56396293854777   -0.31978283702160    7.57455711543677
C         8.07202953439037   -1.34175401929953    8.69651662893792
H         8.16380175553844   -2.23973222154033    8.10478798903841
C         7.16257138683096   -1.29193511490754    9.74121490914477
H         6.53383478992613   -2.13998015746029    9.96189824678192
C         7.07366064780545   -0.14704231440734   10.50611812901110
H         6.33471873157952   -0.07484464328915   11.29059072007128
C         7.85288791587971    2.13208571077186   11.07569177161549
H         8.02123798424830    3.09854911144682   10.59342347219892
C         7.70662078305754    3.23682181487573   13.14123133193829
H         6.73907704007605    3.30641042729149   13.64775497772594
H         7.84673452004357    4.13939233878645   12.53090045180307
C         8.83694229679413    3.15072061594993   14.17016272977204
H         9.78547731751627    3.11330969911696   13.62606684890713
H         8.83159231642959    4.05938318138058   14.79015452694630
C         7.67379881568375    2.08978846973619   15.98874636440975
H         7.83939201311083    2.96453685400327   16.62977415329284
H         7.63737863068958    1.20072455739519   16.61596259147579
H         6.70854791965046    2.19159599716559   15.49808376085975
C        10.00809602753418    1.75761528288442   15.71584155884313
H        10.82766375918491    1.63605682004306   15.00938112713691
H         9.94627323464435    0.85964313863320   16.32962501642011
H        10.23075565279993    2.61224523196017   16.36606534006348
C        10.55905887504022    1.98166922932959    7.98385248623988
H        11.27733444831359    1.19168971457786    8.21788915991820
H        11.05351562907297    2.94960974999430    8.04397080926364
H        10.16373501824100    1.83935202029790    6.97379793938405

