99
CSD_code = QUCXUJ | q = 1 | S = 0 | Stoichiometry = C50H44IrNO2P(1+) | MND = 9
Ir        8.77715645703518    8.34498704865510   11.95226928187729
N        11.06915221236394   10.22204100776052   10.77853800283360
O        10.30973967906666    8.47442429209274    8.94055770672814
O        11.97192367537144    7.88745597975683   10.74532820033101
P        10.56956104472732    8.64851664980375   10.52425510129808
C         7.84944658406723    8.08370069781077   14.00909818054813
H         7.07438741648474    8.71302467472848   14.42334656592976
H         7.61782702939464    7.02981797234186   14.05871394682990
C         9.17391862692994    8.50703261883950   14.12706369439718
H         9.39752715350631    9.49002143927042   14.52837311283298
C        10.19251816709420    7.77714422844092   13.48152463538299
H        10.13159372029840    6.69107425061918   13.47385810538780
H        11.20524992308549    8.15246374193038   13.56044045653173
C         7.74174577744796    5.81981039122317   11.75929146771006
H         8.02074789096739    5.41326372287467   12.72273704226535
C         8.68102944690437    5.95085667293220   10.80996948658646
H         9.69810337298058    5.64039882025643   11.01972663839443
C         8.37850581905214    6.23376540322316    9.36835978555784
H         9.31895858816909    6.34268525003976    8.83174182234086
H         7.88359877634443    5.35047553524543    8.95115325666759
C         7.49102093410055    7.46855619223033    9.10195507088606
H         6.45466707058687    7.15252445246670    8.96383223072258
H         7.81889525106946    7.90873883316783    8.16081120918836
C         7.47785660212416    8.56296991956719   10.15350131334210
H         7.68054766207919    9.55186633084408    9.74353292007214
C         6.66109320260052    8.52776396264800   11.28233170676953
H         6.29060558136447    9.48484021268600   11.63770277226305
C         5.73502574744079    7.39696270735796   11.66289854091683
H         5.43077665575985    7.54004758191436   12.70091271151482
H         4.82917663246781    7.50689463335149   11.05652408763583
C         6.27311049384693    5.96441994782614   11.48991458497281
H         6.07479755446990    5.61631884469680   10.47608857258595
H         5.72209762254456    5.31244243889868   12.16984912984371
C        11.32767257116852    8.55907229742442    7.98585674692312
C        11.20878216414566    9.57043778298143    7.02225964959673
H        10.33743865508262   10.20386171123054    7.04930819151969
C        12.17620093093689    9.71789458835351    6.07195711986132
H        12.08247259559848   10.47840637754070    5.31295727430406
C        13.32851359843440    8.90507561223776    6.09150247042936
C        14.39050737601853    9.11553278655824    5.18811520716449
H        14.29985155569656    9.91334049363565    4.46627461009068
C        15.51391234033884    8.33872489428423    5.23449114521654
H        16.32469464140894    8.50761737834622    4.54273566963390
C        15.62497608441639    7.32261033110264    6.19480347175367
H        16.52586260568065    6.72996149167111    6.23867382255355
C        14.60667396323565    7.08246445125609    7.07571368679927
H        14.70963834676408    6.30741680344136    7.81974841162515
C        13.42512608962570    7.85258618146379    7.04040845863820
C        12.35284002119802    7.64110143664328    7.95618848084641
C        12.32404510035394    6.46244456593274    8.84467067703195
C        12.16143569685073    6.61621187759404   10.20221274041197
C        12.22721557729056    5.53129206806615   11.08975236451990
H        12.15116852578690    5.72677549624727   12.14833500039807
C        12.42114288663496    4.27014946084082   10.60461124407307
H        12.49856315882333    3.43075915106321   11.27860756255353
C        12.49639994663261    4.04050402052899    9.21466877844682
C        12.62456751616225    2.73532020024897    8.69581800976066
H        12.68728439027073    1.90936916749111    9.38857011395369
C        12.65857680689336    2.51875069045464    7.34699286471875
H        12.75727495227882    1.51774599834226    6.95655720258568
C        12.54747823363167    3.59996177342105    6.46073923633053
H        12.54621420183406    3.41627836032515    5.39731197167984
C        12.43756584363873    4.87934961038819    6.93161982138844
H        12.34033143913299    5.70075800717550    6.23912817665911
C        12.43416213449724    5.14131578922668    8.31810102510191
C         9.03490582172813   10.40983123816070   12.06044872067015
C         8.12086387522023   11.18676098653796   12.74685559584186
H         7.24304202219548   10.74648706728649   13.19217073529647
C         8.31418585844502   12.55188673981746   12.90719465458352
H         7.58615651524005   13.13487815105007   13.44794114326776
C         9.44509484920029   13.14079462103283   12.37863873260192
H         9.61848848400737   14.19812451403583   12.50023070217856
C        10.36322016694595   12.37869014357213   11.68330860188895
H        11.23452523334394   12.85419634855615   11.26898717650431
C        10.17187578448671   11.00802431817671   11.50884433241814
C        12.39165581364386   10.69075569986262   10.35531616238273
H        12.94662237336927    9.78119661579360   10.08601951308170
C        13.14036851687091   11.29853230092404   11.53177618589448
C        13.24791770416216   10.54365130234094   12.69296328866382
H        12.81043968870631    9.55549484464721   12.71662247807638
C        13.91243551010178   11.03803916128832   13.79906494926175
H        13.98818056679355   10.43998741479342   14.69495121825481
C        14.48870749828407   12.29644289931958   13.75346661651626
H        15.01033779731986   12.68527911112474   14.61423729610104
C        14.39863500375643   13.04888604516223   12.59591738207315
H        14.85143632754593   14.02752616504638   12.55032297928242
C        13.72753909472766   12.55549644216401   11.48965251339408
H        13.66586789017589   13.15480761497336   10.59307721376448
C        12.38333320007053   11.55420530516716    9.11447372722483
C        11.25491505414072   12.20485833969178    8.63763493943577
H        10.30824702128829   12.10201023912965    9.14640659813523
C        11.32937532899934   12.98862205043115    7.49681421261315
H        10.44483303404478   13.49634396407402    7.14223141286941
C        12.52498634405158   13.12132530315028    6.81528942634179
H        12.57963252826194   13.73601229188218    5.92986153722532
C        13.65148881731188   12.45696844549090    7.27342164459372
H        14.58771952098149   12.54488241787012    6.74362085796403
C        13.57942922363460   11.67891458711057    8.41235116573565
H        14.45938520844688   11.16228999986581    8.76829373828905

