39
CSD_code = QUDBUN | q = 0 | S = 0 | Stoichiometry = C13H19FeO4PSe | MND = 8
Fe        6.05349254038993    4.27047788100656    2.81888108333209
Se        6.26853428198913    7.24618582515339    4.94805676998209
P         7.27402042533972    5.68242082094732    3.93338573573746
O         8.53457449153288    6.32250518111227    3.15283269543453
O         8.06705789534816    4.70056625596466    4.91205774265558
O         5.49057191727124    6.21829987678755    0.76181836490431
O         8.51008592342141    3.47528272352970    1.53261608401407
C         8.42289812055672    7.46141980656806    2.30736537416406
H         9.11721649811076    8.21537475820150    2.69194268528491
H         7.40823359570945    7.87243672254343    2.36303667619952
C         8.78106596574919    7.09365360612646    0.87320016568961
H         9.82030747311795    6.76115736850426    0.84552699506383
H         8.15703441177533    6.25398391519750    0.55737169933795
C         8.57872199996488    8.27677227521608   -0.06360607457517
H         8.84804223438094    8.00270894141393   -1.07991194746653
H         9.19600752083585    9.11710210433205    0.24422945531456
H         7.53843935341312    8.59240087080561   -0.05470548787001
C         8.83923776892894    5.21900156185780    6.00497575425345
H         9.02073828597149    6.28851461567969    5.85795705760327
H         9.79662214507985    4.69054040184735    5.98427805659102
C         8.11510460157284    4.98651064565049    7.32353883247556
H         7.17475505568763    5.54120987736885    7.30593202606433
H         7.88558693248658    3.92258232354037    7.41727741879658
C         8.95836810076508    5.44988435557522    8.50323913545752
H         8.42603939739556    5.27814374264966    9.43480324319751
H         9.17147155491298    6.51258232633276    8.41992437209690
H         9.90156314538329    4.90885075222765    8.53824793644764
C         4.07672404235177    3.26951415171689    2.70465691339752
H         3.37630948109125    3.27005896635311    1.88517594847883
C         4.07759265393966    4.18533430193365    3.79518342592712
H         3.36793464422615    4.98051257556134    3.95345924193462
C         5.03473161488239    3.74261750200027    4.73254801365870
H         5.20616949718067    4.17121122339479    5.70646283835674
C         5.67880698591619    2.60196325734608    4.19664136010178
H         6.38739857213885    1.98037788213122    4.71812526705743
C         5.05409795568280    2.28709410924159    2.95888183239637
H         5.24076534954391    1.40780227274748    2.36359161946002
C         5.73053827388223    5.45663354878957    1.57860321822923
C         7.53133929202186    3.77151067262453    2.03909847077962

