43
CSD_code = QUDCAU | q = 1 | S = 0 | Stoichiometry = C14H22FeO4PSe(1+) | MND = 8
Fe       10.71215313525446    8.11851867489843    3.67647327833438
Se       11.12528547957526    7.50582926945485   -0.06728114765858
P         9.80495941663871    8.04553814093191    1.68945957789313
O         9.04066188778196    9.36343813468047    1.26263823017588
O         8.54051381902371    7.10272218032576    1.56766520099631
O        13.03890993174154    9.49031948623223    2.64269939362150
O        12.18850759599243    5.67212528280614    3.22580807022164
C         9.75179131862248   10.59528172141669    1.06287594103280
H        10.48177703879498   10.45991245408282    0.25684341228861
H        10.29106931279295   10.85377308764232    1.98195639303177
C         8.74263996655670   11.67631763760788    0.70036492226563
H         9.29553313947460   12.56289218704896    0.38859955648598
H         8.14991200537851   11.32906626002202   -0.14666231643534
C         7.82203386305118   12.01874794133662    1.86502754252565
H         7.09835004520231   12.76788832035136    1.55827299915323
H         8.39212519801945   12.42260565078770    2.69930978554624
H         7.27953555314525   11.13568428646056    2.19402130547667
C         8.64364401050944    5.70267464151594    1.86515196329382
H         9.02443107045578    5.57980311180950    2.88654407349450
H         9.35296896531840    5.23811265317366    1.17118555819610
C         7.26116737641179    5.08043338626084    1.72463699001142
H         6.88217755215759    5.29196764513401    0.72425195993940
H         7.36613562422090    4.00014615343156    1.82912442337461
C         6.28498689074301    5.61443017949279    2.76535931805261
H         5.31488318422573    5.14299646316884    2.64085538727070
H         6.15751531004103    6.68786445760224    2.64973305191672
H         6.63985729150004    5.40277567887919    3.77183044076310
C         8.74511041014858    8.27790815582163    4.59730361888757
H         7.77636022253744    8.07446298503018    4.17059914324121
C         9.52505714050854    7.38221690823331    5.35608465862884
H         9.25669011385050    6.37299253822987    5.62178532408881
C        10.65061375430322    8.09501292552170    5.85616725930627
H        11.37585180862610    7.71361469022808    6.55596477234167
C        10.54488349458295    9.43836628736372    5.42323155003171
H        11.19437710248270   10.24677128011075    5.71651079150235
C         9.39036133933922    9.54920052801281    4.61456868726199
H         8.96370491967414   10.46547904489629    4.24237367978069
C        12.11671089355240    8.96684045128469    3.04668559810209
C        11.59403666946947    6.62247165100577    3.40066933432488
C         9.66682397248957    7.49821077425512   -1.38647570154001
H        10.06344851171579    7.88674179699943   -2.32068415769945
H         8.86736358723932    8.13789580063002   -1.01810019646424
H         9.31208007684869    6.48094909580709   -1.52902967306182

