110
CSD_code = QUDDAW | q = 0 | S = 0 | Stoichiometry = C43H61AuN2O2Si | MND = 2
Au       15.20317430824462   11.98072785702365   15.96531762001064
Si       16.85769422022581   14.40748938696531   18.35270815095778
N        13.20309787967610    9.94471787918373   15.13168158332817
N        13.98089118821044    9.34073156171314   17.02947607563611
O        17.50584282525352   16.75241525862237   16.82847649450864
O        18.59180464526071   14.40059083686416   13.23801911915967
C        16.29243262741083   13.64307156083605   15.58477064490301
C        16.77382593690670   14.56459746102293   16.45480192369174
C        17.29443299467964   15.85538941858005   16.03302403164189
C        17.50650494866359   16.11472096422973   14.52997077228324
C        16.24722403158085   16.84696702912697   14.02048964600475
H        16.16159006062723   17.79627315105075   14.55482285212445
H        16.38181287825686   17.06565659119203   12.95715619759621
C        14.98301164988216   16.01802500829318   14.21765432882241
H        14.12931026604210   16.53799692889613   13.77560355246173
H        14.78474946488358   15.89946911167212   15.28487903332868
C        15.14024740849957   14.64565294598019   13.57784518431201
H        15.21534106987990   14.75132389054623   12.49220311378682
H        14.27064199804235   14.01864977254508   13.79597376165080
C        16.40463580154262   13.93972796729089   14.08802525734241
H        16.51961219107475   12.99738304112202   13.54112776400986
C        17.61589257035544   14.78517296169037   13.84475515432421
C        16.77249534811505   12.56810716597816   18.87825037501914
H        17.46311113926525   11.96937421466546   18.29588428924142
H        15.78614257275472   12.13585863648241   18.75879441899448
H        17.05183796119005   12.46249294064876   19.92082658964509
C        18.55624638142466   14.97696093371126   19.01327526143356
H        19.35053189566278   14.38241499548849   18.57090189869883
H        18.61843592199953   14.85904350495779   20.09152787374929
H        18.74890214688611   16.01557796470863   18.77463852844014
C        15.40790869062505   15.34475550023485   19.23817255084371
C        14.14262329576575   15.27048223261490   18.38309915656577
H        13.29313090158755   15.70935332656560   18.90735554178741
H        13.89975578739791   14.23836652797626   18.13676761828095
H        14.28309715063271   15.81396692919077   17.45181504156595
C        15.11812988787061   14.70625717454963   20.59775403249163
H        14.31675647029047   15.24367523170924   21.10604275200465
H        16.00074611572328   14.73643966783115   21.23221507817305
H        14.81546370553248   13.66925796075306   20.48388094321383
C        15.75593276643096   16.81490435308493   19.46742876715795
H        14.90548848957968   17.34788101525635   19.89475813449473
H        16.03338736415306   17.29405565649240   18.53393365240975
H        16.59503097127240   16.90540247690308   20.15230188631195
C        18.74834099873229   16.97947227783510   14.32225938184988
H        19.63979976932076   16.40470688064621   14.56344099834556
H        18.70386375393265   17.85174166836011   14.96971704113128
H        18.81670918153952   17.30003330098572   13.28498133852520
C        14.05336043803918   10.31398645485296   16.10630358312373
C        12.60022281974971    8.75362920223564   15.43791049867728
H        11.88792778715305    8.28911772801954   14.78801863222115
C        13.09246349520442    8.37133351975753   16.64060908008958
H        12.89252004291032    7.50831827356283   17.24116041413857
C        13.01255192056839   10.70440157476614   13.94518836849026
C        13.78079241581784   10.39732871163716   12.81983889106842
C        13.62214429987792   11.18595091276828   11.68859698737950
H        14.21442387431521   10.98488348813958   10.81021687740962
C        12.72154527719817   12.23351998296656   11.67645997688385
H        12.61399074138962   12.83944705919602   10.78954342619065
C        11.96261530110440   12.51322140491709   12.79649841992088
H        11.26626454827001   13.33675616282960   12.77446757924719
C        12.09569360755247   11.75719945870469   13.95343437712447
C        14.78556954417870    9.26910494324669   12.83263781384219
H        14.65470982882337    8.67995229420856   13.74643845363650
C        14.58227347378866    8.32440387769895   11.64633075651927
H        13.55252929931487    7.97448291651023   11.60675535002358
H        15.23655328303995    7.46118721959711   11.74526223636292
H        14.81436126416579    8.81721386555618   10.70658675715027
C        16.20585407212828    9.83979306084550   12.84116871667371
H        16.35553167155691   10.46790215799212   13.71839943457775
H        16.38533190658388   10.44106927536205   11.95379141559599
H        16.93426121488367    9.03251833587054   12.86437995965354
C        11.28088014815054   12.09059314485091   15.18080834732940
H        11.50888807649555   11.36855808378311   15.97146672451224
C         9.78293255634045   11.99744450286100   14.88119821160491
H         9.52980102916809   11.01124592409280   14.49666519035911
H         9.48535974399525   12.73856474660120   14.14442303715031
H         9.21079345801922   12.17129869286538   15.78963438298899
C        11.65163815746421   13.48101083167113   15.70120554874057
H        12.71844610749284   13.52961285683179   15.91591362024072
H        11.10518085639360   13.69687738663158   16.61617500149293
H        11.41343224885674   14.24807175627858   14.96921395410654
C        14.72741625608447    9.33371003724373   18.23840724063244
C        16.06328762871070    8.92936022906157   18.20662374932653
C        16.77844267955090    8.95971014818230   19.39602497064339
H        17.81323718153991    8.65594916254852   19.40371505532634
C        16.18496265379205    9.38084500347680   20.56991528198041
H        16.75963922018264    9.40775490770368   21.48334662117730
C        14.85877693272682    9.76725218469830   20.58122239436549
H        14.40815501450362   10.09513634137378   21.50478323084252
C        14.10311785205014    9.74669273069583   19.41703675066632
C        16.71861870141611    8.44491385838106   16.93471716614376
H        16.00354074010943    8.51636588129285   16.10938656102191
C        17.12265377119862    6.97474797938147   17.07643198779735
H        16.25814785922390    6.36079216339247   17.32301114964565
H        17.86462364833575    6.85052983777977   17.86053599119698
H        17.54765703520292    6.61350177117901   16.14272613219513
C        17.92486655550905    9.31200150738167   16.57228152181087
H        17.61935649939071   10.35042462311567   16.45331009923938
H        18.35962297508587    8.97153732186740   15.63539873106617
H        18.68900646603629    9.26209430259924   17.34288988239096
C        12.65429423020213   10.17669798596939   19.43841655953751
H        12.21455976529964   10.02057041949345   18.44823997881454
C        12.54779417404534   11.66783105997635   19.76044353344500
H        13.10146251433208   12.25199621428592   19.02904646754322
H        12.95131341924811   11.88087083880592   20.74633422133254
H        11.50722610536683   11.98394767461371   19.73917743321152
C        11.84981795961238    9.34128494103490   20.43662193044734
H        11.95478030599479    8.28024801126431   20.21977220960941
H        10.79570878816044    9.60293603641789   20.37736073086677
H        12.18682892592702    9.51666390365798   21.45411498424428

