35
CSD_code = QUDDUP | q = 0 | S = 0 | Stoichiometry = C14H8F6N2O4Pd | MND = 4
Pd       14.62751786468763    5.61345979971887   18.50096064238023
F        13.45305427820309    1.62399065713261   15.76850329590791
F        15.49108218060407    1.51271534258855   16.45364779319652
F        14.98751032970244    2.74928850236205   14.76110207647366
F        14.28827596809186    3.72491154073096   22.82278739402406
F        15.16818904054241    2.17573323902745   21.60971179038671
F        13.02955639620684    2.28542488795390   21.83175555552895
O        15.37465943220897    4.12525635383077   17.30326904956270
O        13.17519769405299    3.98928242436682   17.04502494075638
O        15.17015244209639    4.44961783309431   20.10116448726744
O        12.95480116607639    4.33427907683899   20.05625831328221
N        13.99780015897434    6.72175111379117   17.03219936389435
N        13.81329990276204    7.01369356668911   19.57823770067759
C        14.25462684876756    6.56723039695316   15.73716276464657
H        15.10347562175961    5.94361024858196   15.48051650568436
C        13.48129337775004    7.16419714451917   14.75601489351759
H        13.71739109275756    7.00893797161427   13.71609282048531
C        12.39787262215396    7.94232585679157   15.13900139686990
H        11.76162469109913    8.40142208360920   14.39864047706412
C        12.14622293611136    8.12487124479585   16.48766739669035
H        11.31351646393811    8.72904905420448   16.80768352985009
C        12.97004308773154    7.50558771085527   17.42485938454939
C        12.86234249883306    7.66903842225170   18.87754173349155
C        11.91628803849355    8.45994454547007   19.52562571911778
H        11.14370780753641    8.95796206886407   18.96350348969078
C        11.96701249835695    8.58482453647389   20.90312114561162
H        11.23305217558913    9.17954006526100   21.42405135694142
C        12.97680709334288    7.93717180614819   21.60084773368892
H        13.05826683861666    8.02117607404728   22.67209314045236
C        13.87853424362608    7.15595502579125   20.89826578715363
H        14.67534509089972    6.62457583650558   21.40621249206202
C        14.32002576891165    3.58600417105910   16.88436926617955
C        14.55883614983769    2.33932873547482   15.97540146009540
C        14.05697605219975    4.00340973787904   20.47495988136754
C        14.13424214748725    3.01603292471678   21.68174522144910

