138
CSD_code = QUDJAB | q = 0 | S = 0 | Stoichiometry = C67H62HfN4O2Si2 | MND = 6
Hf       11.86557630762335   14.86929423222226   10.38696566544281
N         9.99722895843550   15.61299400433202   10.60087372324248
C         9.67805233680710   16.54745657309196   11.66349185512163
H        10.01902269698799   17.57739928559620   11.44226459252403
H        10.12393394506353   16.22383707747646   12.60725160980894
H         8.58624172133387   16.59852664688045   11.80954335867790
C         9.37633306523645   16.05642654664845    9.37095437778854
H         8.27874253207111   16.08912690280111    9.47859198590784
H         9.62000328353758   15.36346043723129    8.56387239071392
H         9.69677334376838   17.07641673745545    9.07820021201059
N        11.50906248937431   13.29063885325773    9.14754736231224
C        10.48927783111862   12.36168283846048    9.57854200454835
H         9.46498575076314   12.73708565607978    9.40044897066115
H        10.61413951311069   12.16599530294754   10.64023223659900
H        10.58519988680966   11.40708963907813    9.03448562335902
C        11.46298532555559   13.41234785880042    7.70923658651982
H        11.73306183943310   12.45321601630177    7.23267384192487
H        12.16798628126349   14.17046446556275    7.37785683253031
H        10.45980496939868   13.67675009207701    7.32849192512875
N        14.23792223559370   14.18280352854512   10.21786169993122
H        14.27657016150591   14.44513386632313    9.22949528071274
C        15.39921730682834   14.76807334594847   10.87950313454625
H        15.34912012260063   14.55811318587036   11.94971452248545
H        15.41205114145263   15.84742638597331   10.72968013898136
H        16.34247429789980   14.35723575789326   10.49433646600050
C        14.29651089029257   12.72192408299588   10.27998017737233
H        15.21896682288248   12.33138591536016    9.82961434803467
H        13.42541277201734   12.32078622346310    9.76020671231432
H        14.25331950657126   12.40535553992053   11.32167690717054
N        12.64269098254842   16.55931494964664   11.75783652767540
O        12.60896333999145   15.97238773660060    8.89207215079378
C        12.41554689015194   17.26358451740128    8.79831520348882
C        12.25272368057257   17.84210414784936    7.50003367768828
C        11.95894207482760   19.16947661848565    7.37346292142158
H        11.84843683383882   19.60083234830844    6.38797832393123
C        11.81568792115473   20.01027387122016    8.49826951678782
C        11.42091114980380   21.35568899166264    8.37766358957430
H        11.17597051536748   21.73350141527175    7.39506873741649
C        11.34120304800944   22.16529572118413    9.47747151553261
H        11.03474514289688   23.19617260448295    9.37956489106467
C        11.65009685715078   21.65130058972505   10.74399093084974
H        11.56737298687498   22.29099415933900   11.61079772162990
C        12.04360218684862   20.34893531815878   10.89165132764350
H        12.25396978570760   19.95891019412251   11.87722915347882
C        12.14709894905893   19.48966481104576    9.77691430095572
C        12.50603837952180   18.12025750287649    9.89899909583539
C        13.13917885057800   17.63468607694925   11.12962754568325
C        14.26614577477905   18.31549801357002   11.59892211095304
H        14.63299759861488   19.17263351296918   11.05638176888165
Si       12.75184609979689   16.75011709084524    6.04239201583800
C        14.30082529373225   15.79779325480508    6.59284403458695
C        14.54331306619045   14.46364201629074    6.28649268100389
H        13.83242751395128   13.91517128638190    5.68749678534220
C        15.68229318040079   13.81853249827948    6.73929107648866
H        15.84623028659251   12.77923160651315    6.49256471542792
C        16.61338386607570   14.50432065160077    7.50013475957731
H        17.50873816084232   14.00641211434656    7.84528337572722
C        16.39335626558850   15.83730937459981    7.80955264448081
H        17.11865689816457   16.38306889924209    8.39735772605545
C        15.24779837198283   16.47013704680111    7.36334517504577
H        15.07936244435527   17.50727893142262    7.61918632697598
C        11.31436037632390   15.74307853062913    5.33387730763236
C        11.50838920835210   14.82113923002716    4.30982675932796
H        12.50480156253271   14.65644699239812    3.92546033153216
C        10.44492253595444   14.12587235236476    3.76396649087130
H        10.61642524326643   13.40948335758442    2.97315106965394
C         9.15868742207430   14.35220655401858    4.22469750327721
H         8.32676433705167   13.80886430616539    3.80050807256629
C         8.94366232882008   15.28714353546309    5.22287634537214
H         7.94096045029281   15.48022698179673    5.57693818579733
C        10.01293172045791   15.97533942014701    5.76753839249977
H         9.83966616634260   16.70978454142473    6.54014032666462
C        13.27550188256900   17.90403593021569    4.62016824229767
C        14.60335387329557   18.24574172519950    4.38648736309396
H        15.37531792545063   17.83340986324013    5.02048771286817
C        14.95360346886409   19.09705502249829    3.35356845765760
H        15.99204131053750   19.34821123955098    3.18931679715879
C        13.97542319633337   19.62627027683335    2.52934644181876
H        14.24614105273923   20.29147335607970    1.72207814108163
C        12.64803140361985   19.29421254694747    2.74302751696191
H        11.87936179056459   19.70006058783307    2.10061144431927
C        12.30694273199358   18.44124011870641    3.77650841815828
H        11.26997774768011   18.17862794279176    3.93244296651680
O        11.97344487228236   13.74297932091461   12.03606534563827
C        11.89209378761089   14.09059116477902   13.29360736125052
C        11.31617425363568   13.14995772427520   14.20681315705937
C        11.26114784413496   13.42336912351223   15.54112613306378
H        10.85574228236433   12.68779777557377   16.22161470065772
C        11.68869070674192   14.65895378200769   16.06882727727759
C        11.54216434994422   14.95613448310227   17.43660951445624
H        11.13450215040541   14.19346738421421   18.08480573649327
C        11.88742911803967   16.18356116451520   17.93044275084844
H        11.77514725549729   16.40907439269273   18.98040724838563
C        12.35842461228465   17.16708970859502   17.05247378207843
H        12.57995551861310   18.15479964786349   17.43059398784725
C        12.52815526375535   16.89607720673046   15.72120029314413
H        12.85663592991440   17.68854053653723   15.06567797675651
C        12.24599288916692   15.61963156776457   15.18654568652845
C        12.42026473871351   15.28581018303087   13.80731378233432
C        13.15398322254105   16.22082664931440   12.95647089035609
C        14.33081678307741   16.81090669161172   13.43637917837484
H        14.76961779494721   16.44853339266365   14.35272862658295
C        14.90458098776109   17.85407692304403   12.73598268473344
H        15.81445912361457   18.31973811584933   13.08571788150071
Si       10.65899836025041   11.52740336547271   13.50316129919890
C         9.00832466277404   11.74922156604206   12.60033730182878
C         8.59578437462219   12.98779150824354   12.11926969162835
H         9.25576098385694   13.84018029932431   12.19506014543514
C         7.36384548127649   13.13585825005126   11.50714303423653
H         7.06485356573456   14.10596182463317   11.13847631920944
C         6.52118393014994   12.04695225045712   11.36319603663772
H         5.55813329550400   12.16131339114327   10.88592358583625
C         6.91855580272736   10.80639751955550   11.83448269155938
H         6.26602444426083    9.95146345700155   11.72560290425109
C         8.14841202307844   10.66349623055124   12.45006500016311
H         8.44689515327767    9.69614697083213   12.82982489394331
C        11.99593124497815   10.57779859783497   12.55249651361972
C        11.69107886623946    9.73820021184634   11.48684819241457
H        10.66689590945554    9.65826941748949   11.15328020789260
C        12.67630717124391    9.00191182539075   10.85373198170438
H        12.42022414174010    8.35635578439660   10.02567824597213
C        13.98896364875973    9.08113989573134   11.28677297101626
H        14.75863150002143    8.49963363890491   10.79987568558621
C        14.30909136863961    9.90307365063009   12.35406376132438
H        15.33104405263300    9.96196521129786   12.70274019964252
C        13.32032729741519   10.64541149266062   12.97549556145901
H        13.57400022170143   11.28656118704366   13.80895203053521
C        10.22170282475750   10.42733372342897   14.99913878179637
C        11.01192008242970    9.35023168905524   15.38440553301859
H        11.90536480109315    9.12345910234692   14.82035529832355
C        10.67268676236943    8.56234345013140   16.47047766221264
H        11.30145474575994    7.72878816802204   16.75050334676047
C         9.52796187496653    8.83960128664651   17.19757895790013
H         9.26036319901785    8.22622367197598   18.04606264422349
C         8.72562530377692    9.90658469074119   16.82833634479059
H         7.82856380622860   10.12750874080178   17.38961246755088
C         9.07155326709955   10.68686984428129   15.74056962524445
H         8.43761288070288   11.51403186495581   15.45296593033733

