97
CSD_code = QUDPEK | q = 0 | S = 0 | Stoichiometry = C32H55BFeN6O2 | MND = 5
Fe       -8.35681421553812   -5.82634037740431   -4.52568392010131
O        -9.14743292258333   -4.64009768390084   -2.92781624942418
O        -7.00872709769818   -4.95062716285166   -3.04882681775303
N        -7.21718223649856   -6.87554369115773   -5.80093385483648
N        -7.51442335795798   -6.71538892695706   -7.09909554590978
N        -9.94427324532805   -6.78692031102530   -5.34338534946362
N        -9.93891129470520   -6.96232934518611   -6.67062926979407
N        -8.41823565533275   -4.20606800637603   -6.10319732177654
N        -8.99561329765406   -4.72316418059887   -7.20600943308257
C        -8.00493725846573   -4.51767071770501   -2.41978348589176
C        -7.83048742667038   -3.84587759969922   -1.07804864649198
C        -4.47718069598240   -6.70704212347643   -3.95249193663885
C        -6.40762411696186   -8.20566028454672   -3.38586109948856
C        -4.47525043732289   -9.10454800182213   -4.67652599808837
C        -5.35183437629716   -7.86775673709081   -4.43986681488859
C        -6.02262013904315   -7.46365948830776   -5.72351507829702
C        -5.52993843132455   -7.65425701520423   -7.01817813704886
C        -6.50393352713927   -7.16447154906796   -7.86793092409086
C        -6.48246124567632   -7.05294466235496   -9.35962114006057
C        -6.22415879795567   -5.59408806283970   -9.75224609064740
C        -5.42590235037074   -7.96887201900956   -9.97382480368972
C       -10.03307162585376   -7.85751050999314   -2.55487790246550
C       -11.89845330786508   -6.22776726612159   -2.96982014539769
C       -12.31225179680991   -8.68960065909209   -3.11264539254181
C       -11.29321044152288   -7.57566852475264   -3.37760096684076
C       -10.94091708199666   -7.52030367541299   -4.83868632419486
C       -11.58804017545513   -8.18108927385639   -5.88675902842330
C       -10.92289764366159   -7.80369453827846   -7.03894612075545
C       -11.15191339796826   -8.26200341311259   -8.44474036932751
C       -10.18633879434212   -9.40864054172579   -8.76457571035552
C       -12.59954374909836   -8.70052381030770   -8.65890003076958
C        -6.44004610332760   -2.42971400290820   -4.83206613073911
C        -8.74177933725306   -1.64262632793157   -4.11628875083245
C        -7.55116621034022   -0.55198411993374   -6.00882616891993
C        -7.79505659973593   -1.88999749607376   -5.29627730343633
C        -8.42885001355727   -2.87702723189545   -6.23984057029709
C        -9.07016099121731   -2.54157087529673   -7.43728908125480
C        -9.41682022837555   -3.73957111700705   -8.02638546003160
C       -10.18559805970543   -3.97185534113043   -9.28880436699081
C       -10.13902229609914   -2.75067109021460  -10.20520285978628
C       -11.63423062661375   -4.32493704913853   -8.93392947621809
B        -8.90345833503796   -6.21821957399847   -7.51528427531406
H        -7.56040143677378   -2.80603777514884   -1.25203754558768
H        -7.02663515716195   -4.32367219432903   -0.52510585436964
H        -8.76120455980659   -3.88191585165767   -0.51970019857176
H        -3.75392884829976   -6.43196666142517   -4.71681252486139
H        -5.09737758023481   -5.84446114404516   -3.73234636888639
H        -3.93865038137699   -6.99426084549303   -3.05178787394401
H        -6.99721736738985   -7.31630348012086   -3.15786308562739
H        -5.93225248836655   -8.54476310059096   -2.46804640348679
H        -7.06969220844586   -8.98958663185881   -3.74819203979462
H        -4.06798754476768   -9.45481285862376   -3.73039225654318
H        -5.05606293942638   -9.90966197758386   -5.12157141620172
H        -3.64282453782891   -8.87228425386538   -5.33478266384756
H        -4.59469810359730   -8.09262222021698   -7.29480029370819
H        -7.46274980233014   -7.34670872502016   -9.74781511970792
H        -6.98488950944188   -4.94620431700466   -9.32545846254901
H        -5.25252630228746   -5.27485619551166   -9.38186226128017
H        -6.23603740832286   -5.48629450467244  -10.83459127414609
H        -4.42828800405837   -7.65507469012999   -9.67785262215757
H        -5.48678582397372   -7.93040011093709  -11.05905243134602
H        -5.57729033438593   -8.99749895573059   -9.65565674615449
H        -9.29472012732140   -7.07021745756695   -2.72685977400694
H        -9.59936062380013   -8.81539642327050   -2.83546622296518
H       -10.27073904108793   -7.87980285257821   -1.49346566113322
H       -12.19773465515851   -6.25108234135756   -1.92402301304771
H       -11.17053845119392   -5.43580383743994   -3.11130407970667
H       -12.77494233777351   -6.00954674809354   -3.57605096035322
H       -12.51653051216921   -8.75341623385873   -2.04595591282850
H       -11.93135391987387   -9.65226059283733   -3.44671042612460
H       -13.24953698010080   -8.48650389138115   -3.62408203091930
H       -12.42610773170721   -8.84127004486713   -5.81709244231183
H       -10.93890882378989   -7.43128568243399   -9.12265792838649
H        -9.15763009715281   -9.08596979353921   -8.62425601846917
H       -10.31538665572393   -9.73601296850336   -9.79378103770856
H       -10.37605514682479  -10.25324059584831   -8.10566178878991
H       -12.82526618627945   -9.58586063007526   -8.07012279461467
H       -13.28540621626749   -7.90708737449926   -8.37204864822648
H       -12.76470907417839   -8.93829360459711   -9.70724362437135
H        -6.54729380056245   -3.41404834782607   -4.39172937017285
H        -5.99381582792997   -1.75772976900453   -4.10128917686075
H        -5.76527351038479   -2.51255435275105   -5.68172947297903
H        -9.03411294731713   -2.58069981260266   -3.65916529951632
H        -8.26330596570973   -1.00919496940754   -3.37154854916134
H        -9.64478166138498   -1.14358142537913   -4.46331900896892
H        -7.00409423116714    0.11553645560049   -5.34593746902278
H        -6.96259159291400   -0.69581242281863   -6.91222071466126
H        -8.48724947773628   -0.06716595386680   -6.27412565801860
H        -9.24983923523105   -1.56128178924543   -7.82336211582131
H        -9.74305383161259   -4.81777861920275   -9.82279118696383
H        -9.11009115661152   -2.46832082935567  -10.41475420773843
H       -10.64584541078913   -1.90587674451065   -9.74606913888954
H       -10.63513271468481   -2.97403850464858  -11.14713953905940
H       -12.10679560240297   -3.48762717241735   -8.42529014555362
H       -12.20252458832372   -4.54981530098344   -9.83403958243863
H       -11.66219021942761   -5.18746946500817   -8.27352266820182
H        -9.08111236478394   -6.42309902502607   -8.66183853688945

