92
CSD_code = QUDZOF | q = 0 | S = 0 | Stoichiometry = C32H56ClPRuSi | MND = 8
Ru        8.35314182562323    8.22033544900088   10.46666337612412
Cl        7.13032894424791   11.90857012178384   10.38607357836723
P         7.20313489997934    6.80990277263816   11.87965333849353
Si        7.72996475920889   10.18842446496538   11.47644403281988
C         9.02716168933218    6.85953198241392    8.83774934661302
C         4.62729285526814    6.26208530238342   13.12068078031599
H         3.65857746179008    6.69280489577185   13.37183246411963
H         5.11540259140470    5.98429272347828   14.05072955496482
H         4.44920636002634    5.36378461996489   12.53464695135274
C         7.69899754670309    8.69278707519099    8.34315102529290
C         6.77738227313901   12.11078684751729   15.09872114093558
H         5.87992251084903   12.38057042231029   15.63673907492656
C         9.08164190709543   11.43438745403591   13.72127329616813
C         9.14769318019017   12.12059896846967   14.92374801103757
H        10.11148724032205   12.39995646844967   15.31850351714331
C         6.94283391921824    5.06664405212650   11.33857024004850
H         6.62182383193535    4.44803462497690   12.17572366512982
H         7.87822128984190    4.68032015696525   10.94010222131817
H         6.18706949644719    5.04308563198368   10.55605420818669
C         9.56373707693347    5.45881906968510    8.74644190763899
H        10.08325754764832    5.32956781325139    7.79279305418977
H         8.76756344962631    4.71843794549399    8.79509145618573
H        10.27496868749909    5.25070902808415    9.54548061600229
C         7.91444877564304    6.46668591359936   13.57799550627188
H         7.19609432445624    5.84990220083057   14.13090433532284
C         4.45663278499558   10.34490856125749   14.39593956615871
H         5.01259085443668    9.50807347826540   14.81428829258317
H         3.54986740731205    9.96211566444845   13.93180244590796
H         4.16437083602515   10.99900920752901   15.21321422922253
C         5.29975312532654   11.09783679842617   13.36391924890519
H         5.41499530055071   10.45150191995810   12.48583913020238
C         6.59061890208867    6.38956473797811    8.00938410996528
H         6.60346145903978    6.38572844990875    6.91576273601238
H         5.60907057698737    6.73868655881905    8.32695558914501
H         6.71892810042883    5.36308724474597    8.34603866947158
C         9.85827827617828    8.02220196238217    8.84194951316718
C         8.00557397513139   12.46578613336365   15.62948833746681
C         7.69319242315820    7.28206658527172    8.50169894180978
C         5.43850030952688    7.28558389040305   12.33315504903460
H         5.56314653390690    8.18495094260806   12.94618437096381
C         6.67518303419282   11.42833083050863   13.89467120075814
C         7.83294483247111   11.08614663258829   13.18786870527397
C         4.58304930126504   12.37230159147371   12.91404545606965
H         5.15305884370019   12.86764920701894   12.13279342069191
H         4.46834634839172   13.06342279138511   13.74572686902223
H         3.59591081441712   12.13288824289455   12.52375675002467
C         9.22333184087618    5.69758621527804   13.43383172988522
H         9.72470962060169    5.62197461022185   14.39713667442836
H         9.87625938108382    6.23206693371024   12.74474102669514
H         9.05864032427010    4.69142237243854   13.05611900298988
C         9.04267990055448    9.16079254135818    8.56326705385783
C         4.68840383362919    7.67958661271844   11.06468560657641
H         3.76779033014733    8.20768327481956   11.30826317307704
H         4.42555751908103    6.79649325775172   10.48463160083735
H         5.31010510745540    8.33466960393649   10.45110652238984
C        11.35838484575910    8.01269131708114    8.85678862886346
H        11.72825532178968    7.91105781418155    7.83267037914415
H        11.74285088928912    7.17997655787824    9.44232977498024
H        11.75627146239877    8.93686326633498    9.27237561917081
C         6.59736744704294    9.50217234764584    7.72514343873245
H         6.74810380478564    9.55328575828722    6.64337985348427
H         6.58360365134096   10.51882291224635    8.11212698515847
H         5.62235841574192    9.05306112332415    7.90793233305066
C        10.35978196344749   11.13409854912154   12.97359093084223
H        10.16592110906292   10.32224004091954   12.26512854569621
C         8.15469941907900    7.76918172688681   14.32902481499395
H         8.56367173392561    7.56653101078302   15.31765536996833
H         7.23653207149958    8.33891283275246   14.45034415266571
H         8.86357504899919    8.37832142861717   13.77154360828307
C         8.83513407087465   12.37929805893156   17.98585201173842
H         8.35022706233914   11.41421506551558   18.11671747289317
H         8.84367031172130   12.89661449229913   18.94305743876315
H         9.86376336259819   12.20573618429010   17.67999676781404
C        11.49457513369699   10.67135795389335   13.88857746239602
H        11.14505631132490    9.88806312119288   14.55702967172433
H        11.89223160845620   11.48976239789063   14.48392076296986
H        12.30827291358254   10.27150702623400   13.28770134578214
C         8.09048547751324   13.21054426542361   16.93904021156762
H         7.07042840379376   13.38113033334720   17.30229272010309
C         9.56036388532607   10.51842216159251    8.18606963199131
H         9.85035083844287   10.51717921839401    7.13184606521813
H        10.43402415660684   10.78648741849798    8.77846791603699
H         8.80313113215409   11.28549041545759    8.32867703939286
C         8.76085102788604   14.57278461162935   16.75019133216599
H         8.75408388677007   15.12990215759597   17.68483500028762
H         8.23266719526155   15.15277016966066   15.99647805236017
H         9.79290823230381   14.45459836718877   16.42983347146807
C        10.77773602338366   12.37137309446275   12.17464692564389
H         9.99119756642896   12.65714223768352   11.48028122318339
H        11.68419360187643   12.16890895561888   11.60799171419060
H        10.96664505131801   13.21027619861312   12.84167579301108
H         9.54761922039160    8.09677654959315   11.44055381271933

