41
CSD_code = QUFDUS | q = 0 | S = 0 | Stoichiometry = C19H16Cl2NOPPd | MND = 4
C         8.17724969138973    0.73717719134465    7.60830051739502
C         7.02321977152605    0.54842944283929    8.39227733277182
C         6.77046794588386   -0.73099375795777    8.90017529606247
H         5.88100558884113   -0.89246464683809    9.49152160668517
C         7.64316865020161   -1.77721121782079    8.67895324091784
H         7.43072092971310   -2.75102593564928    9.09298947859096
C         8.78997753662071   -1.57542151272712    7.92626937505793
H         9.47724673494476   -2.38906438457377    7.75104056442004
C         9.04610727362904   -0.32626531499700    7.39035209086271
H         9.93362441244791   -0.16623498613581    6.79379758770276
C         6.05055690628367    1.57484778920256    8.70494797599748
C         7.40461765038547    2.33487015367796    5.39230985308263
C         7.27942262693822    1.22060944963816    4.56775408752740
H         7.84444287809926    0.32431482250913    4.78596861992317
C         6.42628724157133    1.26559800022968    3.47981124130058
H         6.32841908504837    0.40258688866544    2.83790359003372
C         5.69546587308527    2.41346431630771    3.21498668734712
H         5.02968358967722    2.44167129453363    2.36553308636142
C         5.81212864804175    3.52234754183390    4.03851151053478
H         5.23800850507666    4.41284239744184    3.83213837635464
C         6.66349248860345    3.48576527069044    5.12836427793278
H         6.76755007159583    4.36004734927058    5.78415973051864
C        10.19440590146930    2.29132930608519    6.26747736336401
C        10.55392916978548    2.16990937731479    4.93141224259441
H         9.79273707836446    2.08502112249085    4.16878910753344
C        11.89489892993629    2.17073409214982    4.58566191457285
H        12.17944482437684    2.07850305471008    3.54787065126693
C        12.86818136091170    2.30079905302319    5.56211354039787
H        13.91132559007865    2.30923470379058    5.28329335928658
C        12.50839575559674    2.43734421370842    6.89503347479506
H        13.26912755283407    2.55647326694853    7.65172613553914
C        11.17391950504167    2.43789597988890    7.24866739627663
H        10.86725823254916    2.57253429121221    8.28101454971207
N         6.20749814871861    2.84866571603301    8.69041620969865
O         5.08489896727251    3.55563688633818    9.01023109009774
H         5.42533470392583    4.49431905851286    9.22889044343803
P         8.48511300234159    2.35994149057792    6.85515620702326
Cl        6.85260809596125    5.75675415440488    9.35016001464839
Cl        9.39825255150198    5.29548033325701    7.41481955506904
Pd        7.72937821559469    4.01536684946004    8.13488746164140
H         5.07282831414789    1.21416689860497    9.02511315566676

