47
CSD_code = QUFNEM | q = 1 | S = 0 | Stoichiometry = C18H23N4PdS(1+) | MND = 4
Pd        3.27435986518236    4.71920602927251   10.81045214806218
C         2.58694282030101    6.30291170771513   11.92049345652173
H         3.28891128297601    7.14592787828086   11.84991615248243
H         2.42269657320063    6.07932797147476   12.97870519182857
H         1.62072766354127    6.59238454810824   11.48193728694533
C         4.00628037134053    3.97125103981752   13.88495869564093
S         3.02692316689882    3.33749821490204   12.64461742475349
N         5.14927302475176    4.65222470364794   13.63385903435402
C         5.48586670094349    5.86262214147611   14.36137615744730
H         6.49016951709020    5.79647407388248   14.78261463284176
H         4.77120390011106    6.04718005388359   15.15661917286440
H         5.45393167918186    6.71145117334017   13.67286044172566
C         5.82323558431068    4.53855705932081   12.35903887784699
H         5.71173100144034    3.52188485600439   11.96884073447605
H         6.88371313142908    4.73456034880450   12.52180869106594
H         5.44057156869228    5.27421902732922   11.61219547750505
N         3.65306145333703    3.73328132795468   15.15381857016583
C         2.34081337173353    3.22167069105982   15.47753629993374
H         1.60628889569343    3.60404075309274   14.77115659068127
H         2.07687935310939    3.54607908904228   16.48255837472859
H         2.31941585527096    2.13044916331074   15.43702605805143
C         4.59886665994163    3.69989280173582   16.24929443504114
H         5.61799677201173    3.74844895788708   15.87701554180471
H         4.47205528950711    2.75900416451691   16.78731614718029
H         4.42638561002191    4.51849498236853   16.95078798293437
N         3.29121650768508    5.76614722904450    9.01022939824576
C         3.07135390823317    7.04920094460731    8.79671858196163
H         2.96886979702081    7.68451984108767    9.66599693980585
C         2.96683361150223    7.60448910788529    7.51919005210433
H         2.78565911275817    8.66167531790610    7.41333106228542
C         3.08865973545462    6.78809046204981    6.42211098777845
H         3.00373340113268    7.17800152851447    5.41930472332829
C         3.32801528861240    5.41761024169214    6.61640036461588
C         3.46325481922939    4.50867327547811    5.52784841533010
H         3.37447049484414    4.90239414790470    4.52699993454942
C         3.69179087701299    3.19101907741613    5.73893371307299
H         3.78806213862673    2.50452987653572    4.91186984178374
C         3.81311187166811    2.67358511951018    7.05965742943931
C         4.05365470099060    1.31413945587610    7.32293841152957
H         4.15058024068603    0.62252329658643    6.49974230607986
C         4.15753822651464    0.89047950507133    8.62532786369123
H         4.33613020569803   -0.14531627328479    8.86423813806700
C         4.02860669833155    1.82651206181159    9.65562278149755
H         4.10453884637067    1.51508674001810   10.69151650866030
N         3.80694415897412    3.10662501410452    9.43615952705378
C         3.68658852733118    3.54492757222056    8.16525007136881
C         3.42858571942658    4.94264369970511    7.94460937088025

