52
CSD_code = QUFPUC | q = 0 | S = 0 | Stoichiometry = C21H26AsFeNO2 | MND = 8
C        10.55456053002217    5.31120298985281    6.50536798105920
C        10.11186133904549    6.66137156722528    6.43149269013651
C        11.12944447282843    7.42173260402217    5.78024448080968
C        12.21028311696877    6.53494117230288    5.46794019730974
C        11.86187929280448    5.23864582758481    5.93251373822451
C         9.88768439994737    4.17644871213547    7.21169510082643
H         8.84168409781410    4.39696425848606    7.40934884856986
H        10.38418385906292    3.98089142544743    8.16372491727615
H         9.94245347989429    3.26571074132466    6.60849681273285
C         8.89107622984199    7.22486698259702    7.08926715431535
H         8.09597118423372    6.48446708182696    7.14375169821475
H         8.51438522030892    8.08701790018989    6.54350557206770
H         9.13153409145080    7.54433744213806    8.10540659851555
C        11.16176779754959    8.91331153712869    5.65958565124723
H        11.76051566732188    9.22292712187386    4.80603001299696
H        11.59646058410857    9.35445994031912    6.55911962088200
H        10.15870394920475    9.31503253227022    5.53452141866468
C        13.55431975528468    6.95297030212666    4.95578312612855
H        14.03438043652888    6.14452407995986    4.40853550146458
H        14.19972536345369    7.23482297856757    5.79020409942047
H        13.46953651599711    7.80861097388794    4.28989547420592
C        12.72578808488961    4.02262766700386    5.96452574725801
H        13.66279449111345    4.19303273936435    5.44115943954600
H        12.21838513766171    3.17051450731440    5.49709221287051
H        12.94949635284997    3.75164010849546    6.99706566410059
C         8.76343694579478    6.47512640087581    3.90074437533174
C        10.97350934612960    6.65420484274205    2.83765937158738
C         8.12278466202520    4.65102311472592    1.68845200771525
C         6.74466971782420    4.76342081797593    1.86576831828611
H         6.22601216307836    4.00518247442221    2.43604461111296
C         6.05884884956684    5.84263243759789    1.34348773094501
H         4.99374534450266    5.93065316659262    1.50368454113286
C         6.73332195249803    6.81662530193218    0.62500221066819
H         6.19588591167237    7.66418997003637    0.22556294947426
C         8.09770855529225    6.69964393261753    0.42067800884426
H         8.62832242100431    7.45027473996316   -0.14696660929343
C         8.78583929864658    5.62381045345430    0.94763188575002
H         9.84669427886539    5.50915947650779    0.77418929162369
C         8.86778184155636    3.54006983040874    2.29666608816955
C         8.00175481225506    2.05213777343311    0.55437097055225
H         7.31902553400863    1.20085194513586    0.53684989572048
H         8.84607467142406    1.83822794848889   -0.11442875279183
H         7.47809349478621    2.92843326483412    0.18111925510972
C         9.16193148516874    1.16887760952238    2.48161456372639
H         8.73258483258923    0.23323805964437    2.12941227316888
H         9.08458192567484    1.22565853088411    3.57469052702363
H        10.23654105412089    1.20459453225071    2.22906292247513
N         8.44945175408061    2.27724422576373    1.91102759574697
Fe       10.37606134133154    5.98045798469792    4.32244458809511
As       10.12738599083860    3.84129552582054    3.59416632408284
O         7.73081671994433    6.95458883494317    3.73139737726551
O        11.39735964513556    7.22710361128411    1.93299391963448

