107
CSD_code = QUFQOY | q = 0 | S = 0 | Stoichiometry = C43H60P2PtSi | MND = 4
Pt        2.25165371145769   -0.18929261293877    3.90065909763793
P         4.03838025414679    0.20388156070516    2.54647329966960
P         0.18892151761555   -0.17007371528916    4.87675242014568
Si        1.94047679806288    2.11903254234511    3.75529469463579
C         2.59058811567620    3.49096708552860    4.96479947356895
H         2.11362350724620    3.44738418266614    5.93759824012326
H         2.38743733297871    4.46920062325831    4.53975221413122
H         3.66281742379218    3.41328224370218    5.11317360970041
C         2.64757318219449   -2.22527515029739    4.17977843628767
C         2.46905547346811   -3.30530693423929    3.31075149745878
H         2.02858650257959   -3.14576789426428    2.33234215070212
C         2.82668368196876   -4.59951605143574    3.65415378613522
H         2.66910574795938   -5.40651513550670    2.94921294322777
C         3.38264416037338   -4.86518617310333    4.89207184795180
H         3.66335827875614   -5.87393648111935    5.16242627329587
C         3.57231431362003   -3.82165904243330    5.78133948328641
H         4.00435568784124   -4.01400058246666    6.75557588802488
C         3.21005714352901   -2.53357813512236    5.42658013627589
H         3.37283190044456   -1.73865519846989    6.15338918386030
C         2.90829329644194    2.70379055966015    2.20613247566179
C         3.99675325301673    1.89660192945759    1.86700095182827
C         4.96956239223094    2.35910277670214    0.98728865660647
H         5.84506882458936    1.76210241401946    0.77274177709139
C         4.83295627223089    3.60146569234894    0.39435579485341
H         5.58924189247695    3.95957535698354   -0.28985402170312
C         3.72366991944972    4.38184779669360    0.67693005766051
H         3.60767532358535    5.34556243348448    0.20110267858069
C         2.78561300032673    3.93940834696362    1.59307846240761
H         1.94437314412595    4.57103094430228    1.83855589507724
C         0.05075105008517    2.41211541891225    3.87099192222991
C        -0.68389596030158    1.38966272691357    4.47806894040991
C        -2.03847025805695    1.56898344066889    4.74070528184558
H        -2.61892786402977    0.79030123295085    5.21475920635293
C        -2.66516756076541    2.75417350623008    4.40006394545505
H        -3.71736367384166    2.88613689086602    4.60924521192378
C        -1.94347549714461    3.76751772440520    3.79152141078858
H        -2.43321581325986    4.69265010251307    3.52190436590138
C        -0.59480096500910    3.59116301483492    3.53879274406421
H        -0.03193615633649    4.38740180464144    3.07465694059018
C         5.75079548130603   -0.01420799598887    3.20223370083393
H         6.48453876753104    0.46915336336166    2.54601144317899
C         6.08146340012262   -1.49604792275670    3.36599811631386
H         6.16746839619202   -1.97321188353053    2.38696734701908
H         5.26591127149469   -1.98341529821736    3.90707549612116
C         7.38247003537862   -1.68180623345456    4.14167911030825
H         7.58331690691347   -2.74800246306922    4.26379700308500
H         8.21191068841055   -1.24619891284085    3.57759487860464
C         7.29016973228354   -1.00860925679275    5.50675896326979
H         6.48001808339192   -1.46694655926009    6.07744362275874
H         8.21989016759543   -1.15538592466017    6.06036797779111
C         7.01201311039151    0.48164588021513    5.33832205258382
H         7.84122319363771    0.94695973166579    4.79875215479674
H         6.93722203762273    0.96366168046737    6.31537316317575
C         5.71901902278114    0.69151765321896    4.56022803778897
H         5.53417780966814    1.75969251587651    4.40923556108610
H         4.87304423317051    0.28495691669786    5.13260166943795
C         3.82981417737344   -0.85765372932823    1.04555475429501
H         3.89149318681852   -1.88387666251907    1.43362239721289
C         2.39876709857610   -0.59940357705363    0.56944804852238
H         1.71506927881248   -0.66938203817854    1.43115809680687
H         2.32780767969508    0.41889106515597    0.17559544248979
C         2.01463653424356   -1.59537390340612   -0.51784619875331
H         2.03731720819868   -2.60887776041040   -0.11053243444707
H         0.99934794683978   -1.39708838081316   -0.86784242483369
C         2.99693099578782   -1.49966854101670   -1.68326411608551
H         2.74221501149180   -2.23730253558290   -2.44719427817900
H         2.92108127694392   -0.50849472434075   -2.13693525805524
C         4.42917404764530   -1.72451430234965   -1.20404034370111
H         5.11952869380876   -1.63412109272639   -2.04573947151839
H         4.52330607079294   -2.73598879801017   -0.80130567945563
C         4.79853466215276   -0.71021071685026   -0.12121576718123
H         4.72243721765451    0.29450593768332   -0.54137453308979
H         5.82908444919446   -0.87254966982832    0.20451480406272
C        -1.04696603573327   -1.45937474766737    4.37344537509730
H        -2.05380981551736   -1.16023809953235    4.68737781226249
C        -0.97782303721262   -1.49251393270700    2.84618694881721
H        -1.25440385516601   -0.51192536352669    2.44541833276072
H         0.06130701375576   -1.69290111523476    2.56374713624867
C        -1.87630286213125   -2.57639293818232    2.26384263118688
H        -2.92023316975887   -2.35218139506738    2.49911756037167
H        -1.77584599394763   -2.59421916929113    1.17646649981611
C        -1.50461475016621   -3.93499808215392    2.84884495789548
H        -0.47427215161390   -4.17628554470035    2.58131610586132
H        -2.15278098763566   -4.71115141478165    2.43633967896526
C        -1.63031262878505   -3.90284355018637    4.36790372481307
H        -1.36291469339850   -4.87586548670471    4.78496811393306
H        -2.66890945470529   -3.69506391256136    4.64089747127609
C        -0.72111544971497   -2.82974241006450    4.96217831268596
H         0.32067841913367   -3.07582790108953    4.74431274489885
H        -0.84712304158156   -2.81418834830126    6.04736386156081
C         0.30222349392288   -0.26702404395581    6.72026288138766
H         0.63466770502410   -1.29560325989638    6.91932399445160
C         1.41058038287028    0.68700565007675    7.16024274848198
H         2.31714712458907    0.48626825303508    6.57226530038131
H         1.09930789457398    1.71340250203354    6.95031018245626
C         1.68519460702949    0.53092847283958    8.65124404487804
H         2.03648512130772   -0.48394960229957    8.85268555894166
H         2.46818312906246    1.22555383566368    8.96220345143922
C         0.40915121429491    0.79316805381044    9.44726948454758
H         0.09455210390591    1.82813317706642    9.29290703277939
H         0.59953986460533    0.65700169152984   10.51385845214001
C        -0.70758655135346   -0.14494885311296    8.99720200935155
H        -1.61947633533297    0.06618754794727    9.56019880653680
H        -0.41810059737125   -1.17812437277770    9.20497234954902
C        -0.97659214153856    0.01345605312596    7.50106736211351
H        -1.77139639103926   -0.67212654068631    7.19710452391635
H        -1.30920535690714    1.03495974051361    7.30114383823917

