101
CSD_code = QUFSIU | q = 0 | S = 0 | Stoichiometry = C40H56N4Zr | MND = 12
Zr        2.63030689621079    2.19825960594121    2.30622189119755
C         1.70353664570687    4.44873661855036    3.02366210581443
C         1.27075028786942    4.21213255961258    1.68286922796632
H         1.50507982721640    4.85893724578175    0.84876532148717
C         0.33556030221451    3.17088020653436    1.70328629996504
H        -0.25934924403537    2.82833444199519    0.86564872033879
C         0.17376574425242    2.75082139237872    3.05039813182478
H        -0.60095161723280    2.08488100782387    3.40330595025657
C         1.00626466131054    3.52723563876647    3.85962043844353
H         0.99681339012718    3.54087605757647    4.94228902072551
C         2.48698211555653    5.57184183211084    3.45477319513631
H         2.53741334189432    5.74164470060735    4.54400190793179
N         3.03916816030872    6.36498781376590    2.62621113276857
C         3.61910006716371    7.57432844526888    2.98083130701657
C         2.80027089624876    8.67409569371622    3.30059258875983
C         3.39963837979249    9.90062407767746    3.53194924923219
H         2.79014784321885   10.75852878176016    3.76790300063382
C         4.77371389838728   10.05225252671892    3.47254776712135
H         5.21962960467140   11.01607550380737    3.66963172260059
C         5.56910307025039    8.97020262155838    3.15260372624147
H         6.64080256206672    9.09310494851365    3.10074914054698
C         5.00787924241716    7.72966779280878    2.89524627206093
C         1.29490899517489    8.51443456019864    3.29556422613469
H         1.04757962249316    7.52107618715520    3.68525226708356
C         0.80309482552410    8.57905754704631    1.84578492477272
H         1.05144755787983    9.54354428257060    1.40746118458666
H        -0.27523395844125    8.44063456597269    1.80224260206362
H         1.28026687890494    7.79804346649212    1.25866068917333
C         0.56089477266139    9.54048483079343    4.15608358761938
H         0.98877934813243    9.58437228110420    5.15558121227059
H        -0.48716803404294    9.25978427503738    4.24258900966850
H         0.60447048795436   10.53162071288569    3.71098952447236
C         5.87687945710216    6.54732237045649    2.53646661371490
H         5.20928700650672    5.69943576694246    2.35054027405192
C         6.66464849036350    6.81568392180589    1.25317137238904
H         5.98520208444803    7.06547854317408    0.44173033377770
H         7.23477380411021    5.93334588933360    0.96833406697580
H         7.35741241676039    7.64243367548519    1.38790775215152
C         6.81933191617615    6.18974330309804    3.68808119879718
H         7.49800197091482    7.01253431887809    3.89879908040524
H         7.41641650236105    5.31456239194501    3.43579699660885
H         6.25385464578261    5.97643997006503    4.59349454308373
N         3.47962839920895    2.66238914795024    0.52297732801882
C         2.65662887788536    2.53195773514235   -0.66931581865520
H         2.18318892775998    3.48826835642668   -0.96002981370120
H         1.87304713869770    1.78491699600146   -0.50420916798210
H         3.27058115723240    2.21073093521434   -1.52880654951143
C         4.43574497757166    3.73676238930951    0.33124659099021
H         4.90286938361696    3.66024065358194   -0.66403411506931
H         5.23957861480884    3.67293860526817    1.06886048305852
H         3.97071039108302    4.74018644048611    0.39463177490586
C         3.39249039611645    1.37023482239741    4.59356446301490
C         4.12604625368351    0.65100109594497    3.60043670666673
H         4.11646018739947   -0.42470980820629    3.49679623286848
C         4.99533754224251    1.54635473919221    2.96710576576288
H         5.75905318775854    1.28452853910981    2.24427890301817
C         4.81645401245078    2.82848071888711    3.55797781574103
H         5.44419894924829    3.69309482137518    3.39516425983867
C         3.85006762546761    2.71813843833952    4.55941179118217
H         3.60515767021194    3.48150634605561    5.28629749724425
C         2.52008447817657    0.79546612210814    5.57687824664620
H         2.19687545877049    1.46615471751978    6.39113005122310
N         2.21357857672100   -0.43998621787053    5.55899980507321
C         1.43319713143047   -1.06381679765846    6.51603360228744
C         2.03170925122497   -2.12058572876591    7.22559503206284
C         1.28965252129349   -2.80615261748502    8.16942050593438
H         1.74460721730970   -3.60249095990826    8.73761303699321
C        -0.03652426956589   -2.48205438805964    8.39781564907732
H        -0.60633263021027   -3.02227359972566    9.13957997800983
C        -0.62989251342337   -1.46888227485943    7.67178427414069
H        -1.66767593839015   -1.22907836949281    7.85141441581851
C         0.08381190759006   -0.74468688356213    6.72727681025967
C         3.49253076953923   -2.41336548184486    6.97719427075406
H         3.71225657543036   -2.09546158978253    5.95159757574769
C         4.35015385683945   -1.57037476997325    7.92639664383971
H         4.15734110973933   -0.51086288731618    7.77248626482255
H         5.40730808878517   -1.75675389468062    7.74939885427227
H         4.12127129297165   -1.81634845071954    8.96159490273375
C         3.84293436074290   -3.89367114979125    7.11283742488182
H         3.80492530463999   -4.21473900889091    8.15100084732007
H         4.85265405056397   -4.06834298116061    6.74664977362621
H         3.15441612012169   -4.50428620887875    6.53310593595706
C        -0.60692973970186    0.33865268386949    5.93079322332462
H         0.10446144919792    0.73273355068212    5.19654876607921
C        -1.04581838806829    1.49207372439800    6.83668899814346
H        -1.78512452410020    1.15429907976473    7.55870207156719
H        -1.48486610455507    2.29363490237965    6.24491807690200
H        -0.19632876097624    1.89213593334680    7.38729736474109
C        -1.80358106227537   -0.22957555305013    5.16331402449333
H        -2.56021940994862   -0.60788881756341    5.84552967500347
H        -1.48502590822025   -1.04583245455766    4.51820954094778
H        -2.26225630723639    0.54315660871138    4.54797317636615
N         1.93723444952330    0.41933805480873    1.62865740556096
C         1.03631944593421   -0.43695732271621    2.37860196112009
H         0.59324716414028   -1.19877612887587    1.71605079188810
H         0.21315799468470    0.14335006529741    2.80039864697628
H         1.54758348719155   -0.97535960925655    3.19992640025763
C         2.84405276278638   -0.41557736800991    0.85481541030838
H         3.31541713755257   -1.20057608433505    1.47407859725707
H         3.63109793026571    0.19781975010205    0.40330250093361
H         2.29737710445169   -0.93766094031193    0.05019574090806

