123
CSD_code = QUFSOA | q = 0 | S = 0 | Stoichiometry = C50H68N4Zr | MND = 12
Zr        3.20261544625196    6.78047554739164    9.57801869538361
N         1.66017591623946    7.01717265117239    8.29125895943911
C         1.64826897074240    6.65755088470858    6.88777258210090
H         1.11875570775314    5.70168629137157    6.71137572425888
H         2.66345353335996    6.56157628886287    6.49430914063634
H         1.12133609331682    7.42318041652910    6.29130359882081
C         0.29836698772259    7.02961364134529    8.79321505261623
H        -0.31104594234286    7.77852512627398    8.26071162426539
H         0.29817117271045    7.27144554026361    9.85956536892766
H        -0.20443809061581    6.05447094620961    8.64776687590093
C         5.54368988774859    7.59369343909381    9.72880121911746
C         4.76563754166711    8.65361759532730    9.16584329242279
H         4.61893607528600    9.61834097762097    9.63271230788552
C         4.42511827159660    8.29236771938666    7.85622898137712
H         3.92637960234469    8.92255306832615    7.13169764151797
C         4.99877099529269    7.02270295486481    7.58575716501105
H         5.02849860638134    6.53871860386352    6.61786966322231
C         5.69729175576687    6.60305696390500    8.71643176965982
H         6.37136621115500    5.76180714868122    8.77137313581867
C         6.13655891122438    7.62647555521572   11.03485727889549
H         5.95351269174300    8.55221493059324   11.60295620911217
N         6.82903726757105    6.66123830911080   11.50500323067959
C         7.52498044189699    6.76281319516262   12.69841570897814
C         7.40236417931477    5.70956129453795   13.62230147369385
C         8.09368331505298    5.76822649975903   14.81919582365406
H         7.98942614752792    4.96849771293864   15.53741157156511
C         8.91611467506193    6.84084855756072   15.11010236924469
H         9.43808447203862    6.88697311176694   16.05458198231417
C         9.08525783542282    7.84130097511336   14.17399809317121
H         9.75487858772626    8.65902434483836   14.39565705076974
C         8.41184521740263    7.82504950245024   12.96047357369510
C         6.53201823745531    4.51769803798354   13.29977978611715
H         6.05610711206823    4.71760022531317   12.33710311843853
C         7.39757613073326    3.26386555131034   13.15122192430009
H         7.88715628982660    3.01746504070247   14.09043273068580
H         8.16517512568168    3.42415993201775   12.39754474914477
H         6.78449771484628    2.41648058249573   12.85024065972540
C         5.44079046767865    4.29114751888883   14.34752476540856
H         4.80210678812519    3.46140598627008   14.04988233917457
H         4.82280720604687    5.17878387838741   14.46184171767762
H         5.87390685904800    4.05293869235439   15.31611539341941
C         8.71814312969178    8.90302408868263   11.94306673734419
H         8.20447264279096    8.66877884966047   11.00501977399080
C         8.23934384687521   10.27683216088311   12.42045235734862
H         7.16235734803242   10.28484975709808   12.57994513395114
H         8.47821265867644   11.03523193283112   11.67757023664018
H         8.72223557126437   10.54793785916285   13.35647309127931
C        10.21836075121693    8.94010757491952   11.63483772361231
H        10.79312934848525    9.26060963788946   12.49977473276630
H        10.41290758787170    9.63517496852315   10.82043099271743
H        10.56591180301903    7.95309349292492   11.33758343813709
C         2.10072379939110    4.79633671248873   10.66046229786000
C         2.17537320204667    4.39425217258052    9.29704054155484
H         1.33088811950685    4.13808598816750    8.67195746713216
C         3.52203527183728    4.23684861798375    8.96203926272475
H         3.89776978857142    3.84546703290478    8.02467698527158
C         4.30290457394142    4.49489945841716   10.11920779977850
H         5.35786607634822    4.28446357587748   10.22453737258260
C         3.44452730858650    4.86488569258969   11.15654843161864
H         3.70051555240524    4.97420775778841   12.20174877485499
C         0.93269713258182    4.94166054634475   11.47891470998241
H        -0.01863600105725    4.56535385536858   11.07236839270614
N         1.03056404078439    5.41551202589306   12.65728235240279
C         0.00397932382376    5.41350320546950   13.59633128883604
C        -0.90080497919448    6.47687264255497   13.69856215219661
C        -1.86255233710733    6.44094603902397   14.69758316350558
H        -2.57728146391696    7.24612321298673   14.77621651510128
C        -1.92792728012991    5.38939848369711   15.59035243436761
H        -2.68999857473159    5.37361940373601   16.35554388523318
C        -1.00793563401787    4.36109921451338   15.50437224431085
H        -1.05691938994744    3.54505658840710   16.20958663825932
C        -0.02954346216885    4.36091758118412   14.52486942920958
C        -0.84761156604539    7.64169117652407   12.73542002063210
H         0.06676922103733    7.55533614594729   12.13416180101276
C        -2.05653127407428    7.59624249548379   11.79612112974166
H        -2.06314347553936    6.66880402270077   11.22684803616691
H        -2.03311313370469    8.43008302497101   11.09779234106718
H        -2.98120758075986    7.65191600678881   12.36612711924349
C        -0.79206980630723    8.97688844494822   13.48229818920007
H        -1.72851095722231    9.17801939565678   13.99622643852486
H        -0.60349681152986    9.79155599079919   12.78727405846578
H         0.00915798623720    8.96694537275809   14.21656616102999
C         0.97610205193268    3.23486809432486   14.43610184609146
H         1.73014308793911    3.51191818826274   13.69270370683292
C         1.69344102685787    3.01657330007639   15.76906956008368
H         2.14113545776609    3.94634905535342   16.11233492663693
H         2.48162444830703    2.27564307237749   15.65120698709150
H         1.00688922000084    2.66220565347374   16.53342499248237
C         0.29299400435131    1.94767680255921   13.96856411246645
H         1.02111713262985    1.14450146062552   13.87534808118780
H        -0.17923243148506    2.09944426781323   13.00003122261266
H        -0.47216014312354    1.64027588643508   14.67777311674021
N         2.54706573590125    7.81814892039499   11.20669462987248
H         2.48452255071812    7.17856780649433   12.00249945216798
C         2.88168567527645    9.07939534619476   11.66634220470047
C         3.52240386444899    9.26665940105822   12.92078922857602
C         3.78747998656048   10.54977389535899   13.36954654227280
H         4.25775233447601   10.69442163257496   14.32911543389921
C         3.46905452962258   11.66159067031367   12.61316623175070
H         3.68876092656807   12.65252817996737   12.98087174550805
C         2.85867789367766   11.48890353768079   11.38542775606540
H         2.59847837313402   12.35994497285851   10.80386569844816
C         2.55834957645695   10.22804774384237   10.89803248609441
C         3.91461990455196    8.07491686135743   13.77687662141816
H         4.18920569026406    7.24512099196593   13.10651261373838
C         2.73847067797491    7.63588412227745   14.65772370220041
H         2.43579870863724    8.45854836646476   15.30292151906334
H         3.02840734017950    6.79700504053473   15.28805405325472
H         1.88195216477825    7.32970990188827   14.06479496036888
C         5.12976951958179    8.34552453541449   14.66842801288500
H         5.94248003154433    8.80008279335343   14.10756435557988
H         5.49913182639741    7.41034914684381   15.08385332576124
H         4.87087793351128    8.99658188868676   15.49973148391778
C         1.79599437824900   10.10282199300891    9.59245696229380
H         1.92966349539997    9.07748938683213    9.20627935843062
C         0.30640443570169   10.33269524111960    9.87386963535362
H        -0.05449895744027    9.59522559066403   10.58340970397504
H        -0.27442305457646   10.25403843332236    8.95727588509695
H         0.15167491731121   11.32417208872353   10.29633332778670
C         2.25645391477882   11.08939552447146    8.51288534635079
H         1.92275044796637   12.10029318364901    8.73570607826795
H         1.82711682488800   10.80481555331336    7.55403824831882
H         3.33886772481587   11.10253402095358    8.41562884376358

