89
CSD_code = QUFTIV | q = 0 | S = 0 | Stoichiometry = C32H50Cl2HfN2O2 | MND = 6
Hf       14.61004958205235    3.64530934886983    6.14338675577736
O        14.25684687844479    3.49697055301484    7.99105461086650
O        15.48287257747139    3.65623961567229    4.47185322259433
N        16.47345293367655    4.56597531381000    6.92937124685508
N        15.84966544275629    1.81350230285789    6.38490552485768
Cl       12.80565577132262    2.39441726920562    5.41669691919401
Cl       13.57489857505543    5.70222266581770    5.92368543753037
C        14.95377527457024    4.27923407133953    8.80047757130366
C        16.16066271847544    4.82046984547321    8.32640715166899
C        16.99687847051369    5.56508034145387    9.14467895551627
H        17.91827402756362    5.94647450324442    8.73672370478636
C        16.64362577153511    5.81990175411822   10.45845567980052
C        15.41792882123584    5.32612851509497   10.90545594964802
H        15.12649661826631    5.54715033341907   11.91720155853733
C        14.55863009896588    4.57412040586930   10.12560382299826
C        17.51801012742310    6.62138134910400   11.41095316646591
C        18.82038151270766    7.09233179886455   10.75744955333189
H        19.41973173687716    6.24840689157970   10.42259343616857
H        19.40737383676588    7.65132267712919   11.48309256180817
H        18.61934523142740    7.74860941462525    9.91397486472489
C        17.87951577858721    5.74570749117917   12.61904064687371
H        18.42184558526423    4.86008304384707   12.29402926857942
H        16.99078762331958    5.42303914985669   13.15339974689619
H        18.50925291383906    6.30179739906101   13.31011474841028
C        16.74553243108986    7.86161827811775   11.88084329097218
H        17.36891204858702    8.46532933943235   12.53697975755229
H        15.84719038161574    7.58592942253091   12.42512026926428
H        16.45303265277225    8.46765815319833   11.02636688084395
C        13.20209781084374    4.09684955783280   10.62565539880146
C        13.14398210018967    2.56354444013536   10.57781999455950
H        12.20201647648059    2.21400611774443   10.99423487538017
H        13.96060915957390    2.13312942652945   11.15586917159029
H        13.21143692236843    2.21572515158826    9.55151444157389
C        12.91249567939913    4.53945057304768   12.06309689858174
H        12.91748694366622    5.62342442953921   12.14921280565578
H        13.63418228563249    4.11817166049145   12.76006438703969
H        11.92445629360876    4.18679855043103   12.35097282380741
C        12.11647141763016    4.68733414937327    9.71397919258339
H        11.13378661188880    4.35041446317758   10.03639351481644
H        12.26385955406541    4.37756335967218    8.68115260929909
H        12.14390472681652    5.77430682788578    9.75179044609606
C        16.78769923645703    5.80133235550156    6.20657092574780
H        16.02045351828843    6.54388856588121    6.43093452561942
H        16.77191347673631    5.60047719199177    5.13287094368721
H        17.77113011293538    6.19873987399007    6.48143318306662
C        17.53235260895865    3.56386386697336    6.76734479226005
H        17.82279242217590    3.53534690325670    5.71110623909585
H        18.41746299072016    3.82372046599485    7.36748143461750
C        17.01857716731952    2.18665999044794    7.18888645431713
H        16.71681125220822    2.22306954714400    8.24199894748740
H        17.82449274625724    1.44520065312326    7.08059988509816
C        15.08289827134418    0.73887391214956    7.02104774853062
H        14.28379797693391    0.43122002152227    6.34490179452124
H        14.63280106059634    1.11846357252759    7.94103853577669
H        15.71001146291682   -0.12627183252378    7.26317470971966
C        16.19906045919650    1.49116522874982    5.01006205895448
C        15.91831789756036    2.47760524920154    4.04968164685768
C        16.13873006068889    2.17390543615211    2.68731203209007
C        16.68778237527077    0.94264323547922    2.37868177120977
H        16.86280573312983    0.70739018040301    1.34356775770113
C        17.02664434796197   -0.01778727696788    3.33154880690121
C        16.76002620858907    0.27277260798208    4.65841215855707
H        16.97284802359577   -0.44471234428259    5.43319465268159
C        17.63935104517933   -1.33510116060863    2.88041134350345
C        17.95314441915226   -2.26922514482616    4.05265875405683
H        18.66288396975284   -1.81289393364303    4.73940273352020
H        18.39763456638347   -3.18732794096551    3.67433447551844
H        17.04819942045145   -2.53513669959547    4.59384201744476
C        18.94948641151668   -1.05277172968716    2.13172883701019
H        19.64953008759168   -0.53047841959213    2.78069398230321
H        18.77832557927345   -0.43906234858372    1.25226157877287
H        19.40665751081087   -1.98645084500379    1.81129516894750
C        16.65304093733825   -2.05369698317566    1.94952409181522
H        17.06058448373379   -3.01375222078478    1.63996083968960
H        16.45099884046306   -1.46678288496404    1.05844897720497
H        15.71025841711471   -2.22659509144438    2.46356252539977
C        15.72785243154208    3.18047643706504    1.62159676238025
C        16.52497898263011    4.47899086256351    1.80772968046086
H        16.28897559762993    4.93157884142274    2.76596302073466
H        16.27043123949432    5.18791490922358    1.02318690775884
H        17.59449706664528    4.27845613325825    1.76231893282741
C        15.97429995099426    2.66916219939266    0.19901715946077
H        17.03243926163925    2.48893843143892    0.02041256681506
H        15.63876511200098    3.42120079538373   -0.51185933901714
H        15.41513114282031    1.75635082770317    0.00786835074718
C        14.22596187292687    3.46292163648894    1.77460986993681
H        13.65597747616032    2.54528087466422    1.64540413126738
H        13.90326434374088    4.18418452135113    1.02702025810708
H        14.00190901883311    3.86742157298832    2.76038250522592

