109
CSD_code = QUFTAN | q = 0 | S = 0 | Stoichiometry = C38H64N2O4Ti | MND = 6
Ti        5.09405813415249    9.44356054694800    3.25085090786037
N         3.17493643456423    8.20040804684241    3.12016299226473
N         4.07327655214468    9.78089122963702    5.33031649564179
O         5.63450871202904    7.89005281437088    4.08189345802307
O         3.94622968810267   10.85003924582723    2.90222395250440
O         6.41055565458030   10.41072135458741    3.73458872540137
O         5.31483055796372    8.89517368369636    1.60837553976728
C         4.99613374260239    6.77465742407165    3.81448103209428
C         3.68576982734296    6.85807431292945    3.30769619053410
C         2.92913374584175    5.72831092423866    3.04769112419350
H         1.92567955614574    5.84646206922753    2.67220373536851
C         3.45447626593938    4.46344713732526    3.25969897551289
C         4.75577489855167    4.38164396111024    3.75159885743493
H         5.16924909311852    3.40138785996054    3.91649172187437
C         5.54032093901195    5.48375235180743    4.03893075759012
C         2.67962527982734    3.18417434061985    2.97703435056869
C         1.26956228792355    3.45558928256873    2.44453995670330
H         0.76333438012656    2.51026022924976    2.25832371163380
H         1.30544040996866    4.00685606006994    1.50777422470283
H         0.67897250530462    4.01466023313862    3.16699260641071
C         2.54962398033010    2.37145052750054    4.27305457064652
H         2.02946569587016    2.95375061612954    5.03088923836451
H         3.52429647029079    2.09662989040246    4.66577670548734
H         1.98585114013465    1.45857475178820    4.09082351977619
C         3.43393063470800    2.36084839052651    1.92351083236368
H         4.42197905759697    2.07965244849410    2.27626619459688
H         3.55124155887000    2.93980122402655    1.01001737819042
H         2.88354857734272    1.45150527409446    1.68963073762193
C         6.96479421056277    5.34829578092213    4.56470486599768
C         7.06983066565170    6.05817177337754    5.92143930027261
H         6.85155221799797    7.11528178470464    5.79824483749223
H         8.07487970026145    5.95428244501528    6.32644776133180
H         6.36344838703194    5.62832239198991    6.62990989627840
C         7.91581694963168    6.01643899393062    3.56299257965089
H         7.61105823274150    7.04832732851296    3.39913652628166
H         7.88775361018196    5.48790150939725    2.61173807180013
H         8.93752135855228    6.00060793039253    3.93924437171756
C         7.40571553011801    3.89345293915601    4.75269408911141
H         8.42996272137628    3.87577528604709    5.12082594748331
H         7.38000606438699    3.34872269899217    3.81175793647731
H         6.77901268002869    3.38225016490487    5.48026509085133
C         2.48667127978700    8.35112836572531    1.84024351251260
H         3.11714586628265    7.94268895667959    1.05147443678351
H         2.32642052253262    9.41293237737435    1.64807663962616
H         1.51306830070233    7.84056238493583    1.83134571349121
C         2.27315367121833    8.55915086981872    4.21502650471742
H         1.50114247229779    7.78298434420073    4.36198835013794
H         1.77325933984211    9.50156888888962    3.96317728164173
C         3.06178070181833    8.73945171706294    5.50645085503670
H         2.36738944924641    8.99645140463008    6.32638129604601
H         3.56511382618655    7.80008866624774    5.76173094991761
C         5.00906293553268    9.76455919571802    6.44986347392759
H         5.64334929121852   10.64761909738418    6.39097957923487
H         5.63148823455564    8.87168568217045    6.37967769858941
H         4.49396896604387    9.75971564194012    7.42177022862850
C         3.44957494541293   11.07803007875048    5.17290647586959
C         3.44662093205833   11.58919569469881    3.86153833407232
C         2.87443038487412   12.87242074196261    3.65578730602884
C         2.31515134240004   13.52414932731863    4.73910844179542
H         1.87565842391020   14.49425775095632    4.58155005650041
C         2.28475864424019   12.99989084615235    6.03054367157515
C         2.87254028321055   11.76121898554530    6.22990772518978
H         2.89048036344776   11.31493828766635    7.21134936590878
C         1.62607074151106   13.79763667277664    7.14682847859589
C         2.34456909421039   15.14556243707006    7.30007119377680
H         2.27927538433222   15.73311786834979    6.38892286809548
H         3.39652527437058   14.98600507075183    7.52702875724788
H         1.89884471638229   15.72087158110996    8.10926886171160
C         0.15076249633472   14.03533728584141    6.79442662981529
H        -0.34154166411323   14.59443838824811    7.58777754877024
H        -0.36351595077744   13.08444714886064    6.67093671465100
H         0.05191027696219   14.59711806144481    5.87010330756707
C         1.68017276442178   13.07609496641710    8.49663740095188
H         1.19247269205542   13.68617443726227    9.25457499905668
H         2.70826441392139   12.91059850888578    8.81054198298088
H         1.16137206766512   12.12111499435976    8.45097011895543
C         2.94195089507799   13.51087337377341    2.27376969173048
C         4.42486329160821   13.69847945923833    1.92339524305680
H         4.88034152347662   14.41744063001956    2.60289215741522
H         4.53389212367390   14.06636069629506    0.90475364826224
H         4.94664893545580   12.74808591768937    2.01422178936530
C         2.27943441589614   12.58823943266432    1.24196665660042
H         2.80800635359255   11.63955551803725    1.20095063975922
H         2.30571673332867   13.04665410721620    0.25489834660951
H         1.24020641424176   12.40569740889318    1.51140159574042
C         2.25029248955938   14.87582668948811    2.20120394139643
H         1.19178998709480   14.79352854186864    2.43859766562432
H         2.33864793915704   15.26683636991654    1.18923370279561
H         2.71412788588844   15.59169140048030    2.87588890482316
C         7.63342649318508   10.99321136829367    3.98273384898753
H         8.18758825985419   11.10159112316060    3.02440724343588
C         8.48058197305773   10.11381627524821    4.91812555668949
H         8.05144854689263   10.10718772258614    5.91785182980021
H         9.50068389272648   10.48705848202867    4.97133388378612
H         8.48783203398339    9.09341924517095    4.53841285263239
C         7.44855284146400   12.40249012274350    4.57221308385520
H         6.81579766716093   12.99182660058993    3.91145983864496
H         8.41031717094506   12.89678120678930    4.68549497888428
H         6.96283663789920   12.34246153946346    5.54460869372368
C         6.15800640486340    9.18263463799293    0.55477525820143
H         5.76395509321772    8.68312930592291   -0.35611809340843
C         6.20506145131249   10.69641757830230    0.30220220427998
H         5.20398978172070   11.05707508749440    0.07185908589314
H         6.87181789465510   10.93514117332037   -0.52412195763085
H         6.55297195311863   11.18457846378866    1.21401892757782
C         7.56876025384775    8.64106022875058    0.83496336264130
H         7.91536956193709    9.05658901624193    1.78227163052153
H         8.25677196887602    8.91482994040778    0.03785297446588
H         7.53464053820349    7.55675735038993    0.91937428655096

