59
CSD_code = QUFVOC | q = 1 | S = 0 | Stoichiometry = C28H22ClN6NiO(1+) | MND = 6
Ni        2.46332753405667    5.33680827865631    3.21714569575789
Cl        0.84323024997048    6.54158835112355    3.63743321603640
O         1.95736611092192    4.29278066194256    4.50814265139744
N         4.35131486627167    4.23793659790396    2.97478637846127
N         3.55529607326531    6.28247870448127    4.39961589937377
N         3.32111445908258    7.27276457504603    5.25020980402705
N         2.90760525304294    6.28487853669244    1.29580873160887
N         1.46921307478141    4.29571901811359    2.09846181800592
N         0.65626823723651    3.29013229884704    2.36476496321077
C         4.64098268752171    3.16328527395370    2.25956561989265
H         3.89102296677267    2.83292381673758    1.55270579416176
C         5.84082416706601    2.48075073785988    2.38765373942901
H         6.03320034948517    1.60690625228352    1.78692739528488
C         6.77596079991245    2.94533967755213    3.30033087754784
H         7.71929164967869    2.43703728879215    3.42748667188343
C         6.47774282632384    4.06840531285274    4.05190189343454
H         7.17363284350579    4.45641076291824    4.77741457722652
C         5.24686425071308    4.69093762223021    3.86652026772275
C         4.79629444817962    5.83703735492338    4.63475533236036
C         5.36433541170783    6.59282390289373    5.66344782662075
H         6.34893506670083    6.49329747656754    6.06877227240536
C         4.38528093123816    7.50700427099038    6.04603474930289
C         4.41446189833808    8.54606070304134    7.05901899975435
C         5.37327180911731    8.50446882238663    8.07309966008375
H         6.07816814166317    7.68910043220791    8.11073679373514
C         5.40828301845596    9.48941728246371    9.04106079578999
H         6.15005996579672    9.44480814595028    9.82341786980813
C         4.49287030817998   10.52926527248976    9.01108523696064
H         4.52192305543241   11.29750671658969    9.76789216778735
C         3.53943309208996   10.58071490322280    8.00664757834635
H         2.82728813600958   11.39091685412246    7.97865966918646
C         3.49597205320634    9.59818896323297    7.03625924523006
H         2.75783203513486    9.66382988333848    6.25057625481572
C         3.65107300976868    7.33541011647117    0.98453038785643
H         4.20139698483738    7.79357803107628    1.79596677654537
C         3.73482506794108    7.84108055033453   -0.30350357157368
H         4.35077632525877    8.70140275761359   -0.50783832722091
C         3.01063019571371    7.22153386859879   -1.31095636067407
H         3.05092212108270    7.59064509716981   -2.32399604458002
C         2.22998417478295    6.12257879978999   -0.99570429207565
H         1.64776600533369    5.61467403375266   -1.74698347932492
C         2.19974321352099    5.68100536241376    0.32234468374924
C         1.40001231069017    4.56185029300326    0.79012117963784
C         0.50358724724882    3.66249674919212    0.20620359589979
H         0.23590270273945    3.59937949350025   -0.82741928990121
C         0.03765890550222    2.85756895327205    1.24749291398835
C        -0.90166701717121    1.75130302067154    1.22711516184229
C        -1.75320818831422    1.57598644310892    0.13462558115121
H        -1.72412511532308    2.27480488140790   -0.68639394703579
C        -2.64909381619398    0.52473747657077    0.11062666318286
H        -3.30610857861982    0.40089563215060   -0.73629843347270
C        -2.70735790127006   -0.36603927753829    1.17055804958439
H        -3.40700914999493   -1.18687045294276    1.14909763542245
C        -1.86404508591702   -0.20139285196456    2.25799572441421
H        -1.90463758072795   -0.89547500964736    3.08315665425406
C        -0.96659480581960    0.84851274745267    2.29105568850583
H        -0.30510165756819    0.95449784377175    3.13777148018447
H         2.39531036405036    7.68667021960087    5.28737180618375
H         0.58329249753643    3.02044046883273    3.34661931678364

