141
CSD_code = QUFVIY | q = 0 | S = 0 | Stoichiometry = C62H74Cl2N2Pt | MND = 4
Pt        9.69751832066595    7.24580349177124    5.12312525003068
Cl       11.28447449733691    5.64282869273669    4.82061209933737
N         7.21618164350004    9.01790708123264    4.87242176380406
C         8.21234100807768    8.44496385199766    5.10112832823489
C         6.17291213937971    9.45795075965859    4.11808769414053
C         6.10291007503630    9.02627708594101    2.78188975279552
C         5.04746619376335    9.48780074286052    2.01133861265803
H         4.97477265398960    9.17911113391931    0.97951094391729
C         4.09008020020775   10.33052905793718    2.55659829055372
H         3.27004036293246   10.67187939599467    1.94277177475505
C         4.17183303642016   10.73782359615806    3.87763848166649
H         3.42184704723372   11.39175634455987    4.29676725055448
C         5.22437769782702   10.31263506964532    4.67812486239886
C         7.14874961109738    8.07713583865110    2.33261187105993
C         6.85931101645175    6.70982236705413    2.28123292339271
C         7.90146526123408    5.81684153771334    2.06848886706456
H         7.69709324606405    4.75878869682163    2.02930768474545
C         9.20495874780085    6.26059410735639    1.94596832858023
H        10.00818256340015    5.55097106184772    1.81512217707371
C         9.47887541043188    7.62010024487325    1.95324481817907
H        10.48959108966157    7.96013235248196    1.78319162592063
C         8.45478310680108    8.54484266819076    2.12756118063276
C         5.43971578068723    6.20666453021073    2.41219987838984
H         4.81329539432401    7.01877259298936    2.79573231006521
C         4.91712021562844    5.81431249606625    1.02629824666141
H         4.96132888848078    6.65982516162818    0.34278059839365
H         3.88499967197639    5.47725326994402    1.09490795822273
H         5.51686492428810    5.00858932318787    0.60948392508243
C         5.31879651540519    5.03122148072658    3.38162107497210
H         5.75964772526170    4.12926227670655    2.96530702120962
H         4.26977842506217    4.82894938255221    3.58959090417984
H         5.82550911741960    5.25763946806802    4.31596250845799
C         8.72173655052348   10.02657408175646    1.97042960904613
H         7.85481662003938   10.58440602806775    2.34142622274881
C         8.87213404329200   10.33384364465793    0.47620411577063
H         9.72574012259140    9.80047377411442    0.06533657387915
H         9.02270420503230   11.40026978255516    0.32297649233855
H         7.98115627108586   10.02721285878408   -0.06734338749902
C         9.95270908036617   10.51134511486873    2.73381950795847
H         9.87669040826176   10.24419783622415    3.78682291530266
H        10.03552744334450   11.59293390367642    2.65456202791550
H        10.86719383536628   10.07773398803679    2.33913087422732
C         5.41102791784235   10.73767988614684    6.08603459246160
C         5.95405990174213   11.99808880885034    6.35215724168500
C         6.19888877445570   12.35428042242478    7.67089455074314
H         6.62675808363754   13.31927362378147    7.89604769249723
C         5.90691675793927   11.48439494386090    8.70380925542537
H         6.10555835637636   11.77369648630541    9.72555939911971
C         5.35985789783355   10.24582586392451    8.43046378533489
H         5.12893891816554    9.57686894476808    9.24545317381303
C         5.10868454957437    9.85068196246736    7.12325333051674
C         6.30535838134868   12.95267764056333    5.23308236545647
H         5.94729565401145   12.53556901488459    4.28690932867119
C         5.63006518367841   14.31168288063927    5.42688180284549
H         4.55515940572546   14.18838115989240    5.53927490763805
H         5.81632215825222   14.94689570648372    4.56353674108565
H         6.01066239728673   14.81882886438217    6.30942116298066
C         7.82409272202150   13.10675458382671    5.12776281121879
H         8.23353702374130   13.53860602673774    6.03736050031394
H         8.07875615814342   13.75754551574858    4.29417191692808
H         8.29212451640333   12.13832535221298    4.96689298863623
C         4.48300847381452    8.50180717825055    6.85079262726236
H         4.39358511113371    8.36120521651423    5.76895478137506
C         3.07071408422693    8.45503707496618    7.44190788555802
H         2.59461533503369    7.50868186045219    7.19574495574110
H         2.46320373672255    9.26337154584393    7.03924645804180
H         3.09840351697169    8.55352916278846    8.52422812738049
C         5.33913878228579    7.36086268939831    7.40309964350363
H         6.33302094888824    7.37010344515577    6.96112979976511
H         4.87855374695285    6.40488399111885    7.16557768393386
H         5.43884322133105    7.43133725417070    8.48348848561024
Cl        8.10951517544910    5.64356021215292    5.42498147000794
N        12.17870249075368    9.01813764341230    5.37717728643440
C        11.18348107115254    8.44401832339544    5.14687516923330
C        13.22072166276369    9.45850035144847    6.13313076017687
C        13.28862976035935    9.02719868928412    7.46955960410366
C        14.34263137919653    9.48916411093798    8.24179598242495
H        14.41389493731774    9.18049779145744    9.27373352482507
C        15.30061797733915   10.33215973288172    7.69797069598051
H        16.11960579012377   10.67381322613168    8.31304001387421
C        15.22091655946682   10.73918391855187    6.37672849915242
H        15.97133244398876   11.39339401744954    5.95879933316785
C        14.16991274906430   10.31340249228635    5.57452038085494
C        12.24230771218497    8.07771076052786    7.91698262884116
C        12.53151472934874    6.71027080885006    7.96648889318281
C        11.48907502556084    5.81712324132603    8.17708810217305
H        11.69322526497676    4.75897472258209    8.21471760165148
C        10.18554272685245    6.26091317360367    8.29946818584072
H         9.38212405534773    5.55119815956482    8.42865136726193
C         9.91186819282770    7.62049509843949    8.29397671175388
H         8.90108431001490    7.96053365639790    8.46367284054527
C        10.93623374748613    8.54533157219746    8.12163240443367
C        13.95121375726209    6.20725656243740    7.83617053688323
H        14.57788814255225    7.01962340139884    7.45364182051025
C        14.47266651943581    5.81412460203468    9.22227517861763
H        14.42817416828299    6.65936548939745    9.90612254111093
H        15.50473778714724    5.47680704790674    9.15431024023323
H        13.87235412578065    5.00838551390665    9.63823254253669
C        14.07293871635549    5.03242672512515    6.86614824905500
H        13.63176975188669    4.13035026611292    7.28135348828084
H        15.12204944630522    4.83020483041280    6.65890345398382
H        13.56712792896092    5.25946363987502    5.93167048323822
C        10.66898400786848   10.02688678826004    8.27976798537399
H        11.53801028304375   10.58495274779831    7.91404739832262
C        10.51072322410506   10.33207055232692    9.77358097618301
H         9.65430876799861    9.79905147031809   10.17900644096509
H        10.36040865509561   11.39841858735706    9.92752327604143
H        11.39839186409052   10.02372595830836   10.32155665272680
C         9.44210179769772   10.51284669502379    7.51055145501156
H         9.52430327375211   10.24856294631193    6.45730031548630
H         9.35811205118404   11.59415851644821    7.59219522895196
H         8.52568913473218   10.07755331828731    7.89887570208204
C        13.98549299144788   10.73796953425760    4.16616741752024
C        13.44233176304406   11.99802250966964    3.89857622620235
C        13.19953549140194   12.35352964137819    2.57927594278404
H        12.77164639128841   13.31825388771093    2.35299511598127
C        13.49354880945554   11.48329439625055    1.54724463467742
H        13.29636343032943   11.77199868211609    0.52504434149331
C        14.04076473369878   10.24511977874772    1.82205292656088
H        14.27325577399009    9.57586422552594    1.00776191416396
C        14.29000956020048    9.85068593388646    3.12983852826476
C        13.08893230962672   12.95317195196835    5.01651327445612
H        13.44438300310094   12.53613763196169    5.96369600923594
C        13.76572896125356   14.31160903315288    4.82389432339951
H        14.84083846920010   14.18753027032885    4.71429525215632
H        13.57768415642692   14.94736771627328    5.68645243703152
H        13.38772518196827   14.81854851419841    3.94012332450346
C        11.57007055746017   13.10838121102189    5.11815680785817
H        11.16314904695751   13.54032928110391    4.20748019385277
H        11.31391242449152   13.75958256340754    5.95096682037187
H        11.10090700927478   12.14035674012874    5.27815323381300
C        14.91585475168662    8.50222173333707    3.40392576354748
H        15.00381830047652    8.36225964118884    4.48597508386768
C        16.32896696840932    8.45565400758134    2.81474135376330
H        16.80516247512270    7.50970122576103    3.06225715699856
H        16.93556474212805    9.26455383406713    3.21763266325119
H        16.30274460503441    8.55332269389706    1.73230952300727
C        14.06096700704582    7.36066368607228    2.85094158590160
H        13.06639814754883    7.36980565247072    3.29135509864679
H        14.52153418889658    6.40496838748455    3.08964582201330
H        13.96283570067551    7.43052499229376    1.77036984894243

