87
CSD_code = QUGBEA | q = 0 | S = 0 | Stoichiometry = C47H35IrN2O2 | MND = 6
Ir        3.62968148314906    2.19087321423714    2.35558577633898
N         4.84537789543492    3.26596333599380    3.56416881763024
N         2.50518185951504    0.99300935580925    1.17187093763505
O         4.01758100747419    0.68078172657246    3.96234152365488
O         5.22062680299463    1.02188043825362    1.28879636274425
C         2.25472663706880    3.11385451464230    3.47452134897150
C         0.88061783151779    3.23129810437301    3.29688065695920
H         0.42194867783700    2.85037794997960    2.39492782354387
C         0.08942944267589    3.84750786022773    4.25139477691856
H        -0.97639213329104    3.93441765600459    4.09290984563703
C         0.65862737493669    4.37232419059427    5.40334860771084
H         0.03996119814853    4.87521227718234    6.13233154289962
C         2.01705109125844    4.26033666194992    5.61601633432005
H         2.45621184960530    4.69352165840985    6.50173401774747
C         2.81408608913787    3.61175403901165    4.67174135657951
C         4.26424200609373    3.48761398313483    4.75021239070549
C         5.03867199937220    3.58577234797848    5.93708601609056
C         6.40671227224618    3.62291259859993    5.82808829961091
H         7.02187693811612    3.65912044414882    6.71645763800751
C         7.02317803941023    3.57613018554399    4.56263380789403
C         8.41612901637125    3.67496710922141    4.38558098154023
H         9.03811971485047    3.82586447777021    5.25628553080916
C         8.96595935459455    3.58805665452271    3.13590566088368
H        10.03538897638493    3.66303825250653    3.00479543518246
C         8.14117196343943    3.41505832115146    2.01537128018505
H         8.58644679462629    3.37416941719605    1.03242410023035
C         6.78329889461875    3.30943646591757    2.15362565537408
H         6.14249625937191    3.19342950578507    1.29450878479659
C         6.19088249760332    3.36640189078007    3.43056843201228
C         2.00094679129233   -0.21026601443755    1.53961710453087
C         1.59808574774838   -0.43274300404991    2.87127002654556
H         1.68422078268034    0.37816116727682    3.57673970232906
C         1.09708733780156   -1.64984766196189    3.24759528576267
H         0.78862335009224   -1.81172612923295    4.26978235270449
C         0.96679815178705   -2.69128810961414    2.31783701643271
H         0.57624247849039   -3.64608803047659    2.63780026505656
C         1.31744839955189   -2.49242183223480    1.01047143584182
H         1.20250259551196   -3.27965124623712    0.27911667489470
C         1.83054721703868   -1.25141233269936    0.58852454772208
C         2.23946976862486   -1.00041636898846   -0.73573021112493
H         2.23347469867428   -1.80837162788788   -1.45421746436925
C         2.67734474909080    0.24754697748806   -1.10475741824001
C         3.23787896860127    0.44367187833063   -2.45204850694041
C         2.53876685392623    0.05231976511422   -3.58847274172413
H         1.53646434384092   -0.33998612065316   -3.48931042656807
C         3.11162488612593    0.18878472176830   -4.84074508861444
H         2.55734493033869   -0.10694870021426   -5.71964501818322
C         4.39171999706505    0.70007263321640   -4.96773583740907
H         4.83822783358885    0.80331537030173   -5.94569250592533
C         5.09968232478698    1.07716852591278   -3.83719179040364
H         6.10113307569711    1.47015687159281   -3.93404462529576
C         4.52869708011725    0.95168566108592   -2.58596615261044
H         5.07247329940180    1.24339752415476   -1.70001283726154
C         2.72679025540689    1.26939380230364   -0.11932056039715
C         3.01609225559419    2.67643593907242   -0.36830517496821
C         2.83694429615039    3.32107200032570   -1.59281004257454
H         2.48728531137714    2.77456084646802   -2.45556501902507
C         3.08355318465683    4.67454152827162   -1.69515322884855
H         2.94344384113434    5.17655697056782   -2.64142272120036
C         3.50278181628711    5.39100019224733   -0.58276288676583
H         3.69894624120726    6.45044504432477   -0.67083768895944
C         3.65286210842820    4.76138192775875    0.64114634535908
H         3.95798855868693    5.34143919394346    1.50108338011230
C         3.39868872935281    3.40150574254703    0.78167476146654
C         6.73769806573509   -0.68358320713145    0.66937185117445
H         6.81430087853417   -0.07289513502539   -0.22702091774599
H         6.37915238660797   -1.67441485875017    0.39663520405090
H         7.72235104540846   -0.78641465805248    1.12026171573597
C         5.77651929688387   -0.03922802269813    1.65518328175422
C         5.61505150231690   -0.70145009186755    2.87531724092522
H         6.19219955441936   -1.60309409412818    3.01968105053687
C         4.78266330441697   -0.31070382472558    3.92757138234773
C         4.80125134708940   -1.20147312776487    5.15902438888409
H         4.21599315168290   -0.74578305362019    5.95429973251391
H         5.82160243524301   -1.35628850129673    5.50232119741945
H         4.36995162354444   -2.17016757626594    4.91150772864880
C         4.42614893169905    3.48273376829172    7.27204507793884
C         3.56405448595512    2.42249668282097    7.54588006148168
H         3.31930748471873    1.72758323861413    6.75651650159676
C         3.03344552748758    2.26758139565686    8.81155525534888
H         2.36701218698242    1.44293039797819    9.01770467729595
C         3.35441396488677    3.16626541816609    9.81695086635246
H         2.93489605136916    3.04600750592408   10.80485498480390
C         4.21553908595845    4.21747387026385    9.55295055877300
H         4.46824350567438    4.91916392328571   10.33452361796146
C         4.75684032609639    4.37172994874713    8.28881918958573
H         5.42318976258057    5.19669825868601    8.07982065863082

