120
CSD_code = QUGBUP | q = 0 | S = 0 | Stoichiometry = C64H50Cl3NbO2 | MND = 5
Nb        8.82546456843493   -0.90290092247037   17.34598559195225
Cl       10.40598456155065    0.76458355258277   17.27946606646668
Cl       10.30007464762837   -1.89979376432732   18.96225884412189
Cl        8.47405973197354   -0.35301400405844   15.01973905842489
O         7.69817803366372   -0.04486059449329   18.39925147954525
O         8.24712591582268   -2.50068445829332   16.83138330132753
C         6.68356392331898    0.45998429106426   19.08612692625156
C         5.93442246863354    1.50735747262315   18.52105959885468
C         4.84354476501698    2.01722942080448   19.22732612926423
C         4.54186016580128    1.49924132160829   20.48190629932300
C         5.28449702641776    0.47009209769165   21.05064316356628
C         6.36096796158910   -0.07134789043201   20.34525263267092
C         7.92426422428649   -3.54521449418891   16.09138120492885
C         6.63758076074864   -4.10795815106581   16.19156875029493
C         6.31947660882674   -5.22040234653517   15.40822324698543
C         7.26575595451989   -5.73501361510078   14.53032627907553
C         8.51422914843063   -5.14356079145974   14.36779620488290
C         8.85340308787405   -4.03946466277288   15.14938195983629
C         6.33011030842097    1.96627409814879   17.17575388844429
C         5.46581138625575    1.86960286863338   16.09052374660487
C         5.88874481446332    2.24195356999654   14.82913946592168
C         7.17520223022290    2.72064596528950   14.61722815652081
C         8.02756765443995    2.84280356138495   15.70843775353601
C         7.61651521871618    2.46602677365856   16.97256142997736
C         7.65338652484455    3.06064172737185   13.24105248190422
C         4.01457909090062    3.09433410362910   18.65825267756486
C         2.62758819257736    2.97665531323608   18.65379452393868
C         1.84024995060758    3.97787204088351   18.11550573041158
C         2.42748832046485    5.11267458760987   17.58247552654407
C         3.80638183692462    5.24265770167218   17.59331929901226
C         4.59626053097338    4.24114828192929   18.12551408163649
C         4.90439905679975   -0.06172001977740   22.37122775686733
C         4.66305733278242    0.80681838772863   23.43138738757786
C         4.30245366966563    0.31543432338559   24.67274030571440
C         4.16840624487994   -1.04859917430519   24.86795440459552
C         4.39514901021279   -1.91884624396324   23.81454710924767
C         4.76223129626471   -1.43170567181716   22.57438250441864
C         7.20643211542227   -1.15681372374487   20.87935467404993
C         7.92674460802849   -0.99248193671802   22.05731945120616
C         8.73668377495304   -2.00961772267580   22.52436075970861
C         8.84242605398913   -3.21341761433158   21.83895777106672
C         8.10657214052585   -3.37965094082486   20.67170999225860
C         7.30555379031436   -2.36257349707421   20.18811185567097
C         9.75675349987260   -4.29594186051928   22.32118146685758
C         5.65839810422009   -3.47778253390667   17.09615860090059
C         5.37273357670604   -2.11637636185788   16.96933414319473
C         4.42192311706744   -1.52910314687811   17.78459866829974
C         3.74846016527922   -2.26771697370472   18.75179810131612
C         4.05625242708294   -3.61551335924198   18.88899595991739
C         4.99388213628526   -4.21681190103907   18.07069451345825
C         2.68956976187268   -1.62553001391331   19.59400678532272
C         4.98157747005107   -5.83878605102259   15.46540489104230
C         4.85586689261498   -7.21152086241645   15.65554096898765
C         3.60598948320634   -7.80155954605979   15.70439272169485
C         2.46677656132864   -7.02936251029646   15.55368414054765
C         2.58389433175612   -5.66460809887956   15.34871298114017
C         3.83149396272812   -5.07130449598799   15.30499181217997
C         9.46602589074702   -5.68474851078240   13.38330354902715
C        10.80238492610978   -5.88487163129772   13.71912238340325
C        11.68936216435463   -6.39305530731071   12.78907460703104
C        11.25688785938219   -6.70616741249349   11.51113431376859
C         9.92871787443800   -6.51511570474150   11.16969214498622
C         9.03780738221379   -6.01178351764561   12.09966545205686
C        10.08253624471747   -3.24633508397118   14.95898631080303
C        10.33298866514798   -2.61949521408480   13.74200452840968
C        11.37080835459521   -1.71386649849625   13.62601929302201
C        12.17727986452432   -1.40099765668756   14.71360733983948
C        11.96262136172485   -2.07098616795945   15.91455920943464
C        10.93047106544433   -2.98816400360049   16.03870597167134
C        13.24036867076974   -0.35140114548529   14.62123704448986
H         3.70401357127968    1.90686260585389   21.02957167794704
H         7.01175602463412   -6.60046868124099   13.93575535055055
H         4.46248904985265    1.49379129637113   16.23500234080025
H         5.21155470328923    2.14608613710138   13.99240696697180
H         9.03014416201953    3.21992932217190   15.56593064596798
H         8.28266516541362    2.58865657734283   17.81995955804977
H         8.32834398491761    3.91344691569252   13.26194348319387
H         6.81977182026976    3.28016837604430   12.57816170103524
H         8.19903683465045    2.20814721690734   12.83572182868832
H         2.16672922779973    2.08623467992501   19.05798666359409
H         0.76516698030623    3.87131573858415   18.11046170929940
H         1.81236707981049    5.89399135436902   17.16131488727054
H         4.26916305392063    6.12880396546495   17.18474046678132
H         5.66997043104984    4.35067704001644   18.14086955327414
H         4.77940839960368    1.87102954987491   23.28384998491016
H         4.12716194560140    0.99895615339582   25.49068488789937
H         3.88730105840872   -1.43209930064757   25.83759407088277
H         4.28654272690570   -2.98365124804617   23.96055066965463
H         4.93070657789681   -2.11218492538503   21.75362154631905
H         7.85776660147469   -0.05960293361396   22.59835988663341
H         9.30269058725224   -1.86316339165546   23.43316254582946
H         8.17097967846447   -4.31045061491446   20.12529029455535
H         6.72227254235575   -2.51289006412233   19.28797141814984
H         9.33261812683710   -5.27887199133894   22.12768906353146
H         9.95499807137017   -4.19614807417312   23.38560512288724
H        10.70582399989745   -4.22850986503860   21.78880887520912
H         5.86279521230893   -1.52821964069296   16.19722784481189
H         4.18722807386693   -0.48169433153247   17.66320504048827
H         3.55005503455823   -4.20460038727117   19.64035725168469
H         5.21946802544229   -5.26656266927040   18.18748010028766
H         2.52026111180052   -2.18798712903832   20.50886014729890
H         1.75074914777382   -1.58810788995951   19.03983733511144
H         2.96974799147723   -0.60714947098094   19.85370926827933
H         5.74459974536173   -7.81322073688835   15.78261864074750
H         3.52074934870762   -8.86708440339955   15.86072602809085
H         1.49085674918200   -7.49024351805974   15.59202891232743
H         1.69853809361873   -5.05925018534877   15.22069102802141
H         3.91969988136004   -4.00909632091502   15.13250505255828
H        11.14167579871235   -5.65250343548681   14.71725543025183
H        12.72307940250151   -6.54546746140903   13.06252382653220
H        11.95239976594958   -7.09851358462873   10.78409413413562
H         9.58606461048097   -6.75703804586199   10.17412046721573
H         8.00533684369397   -5.84848704481798   11.82583238486236
H         9.68753040716620   -2.81758870332796   12.89883731609112
H        11.53650970428561   -1.21856659018582   12.68012849908963
H        12.60547004505673   -1.87517967322495   16.76331147663529
H        10.81235922655291   -3.55377010787610   16.95760483750426
H        12.91942975500711    0.53276559171275   15.17278089610221
H        13.42375980561246   -0.06728672970680   13.58815061563575
H        14.17041329286571   -0.70158702151962   15.06530089090031

