108
CSD_code = QUGCEA | q = 0 | S = 0 | Stoichiometry = C60H42Br3O2Ta | MND = 5
Ta        4.39470630672183    5.77967557453417    3.79354660239861
Br        1.87107700871034    5.43145086165564    3.87879428673436
Br        6.51625459057687    6.56759095980523    2.62462694182173
Br        3.89680083502002    8.18059609231888    4.10206291966985
O         4.39404741757224    4.49256749840471    2.58310447954633
O         4.87317305514708    5.42274655604970    5.47748982438058
C         4.49229791906244    3.58918798765829    1.61079292480748
C         4.70986201372621    2.23998253148114    1.93178644034358
C         4.89971896669988    1.32408977149512    0.89325287006793
C         4.88435097570989    1.76776319429258   -0.42289016606314
C         4.65684303422581    3.10016516441072   -0.74753717730327
C         4.44864250709598    4.02630304369173    0.27442251248718
C         5.12913901117637    4.71671152353599    6.59071642610793
C         4.10503364436655    4.51932499957559    7.53008714180099
C         4.33878815211360    3.64792677883455    8.59779663414352
C         5.56676367316921    3.00951622723259    8.70761036688442
C         6.60520279635004    3.26100905711463    7.82004582936004
C         6.39298172713009    4.13405784961708    6.75084490950412
C         4.76030323851272    1.84408238824697    3.35080408623463
C         3.71757985163568    2.18346174272158    4.21183699341141
C         3.75144160602472    1.79642170018110    5.53998326310795
C         4.82290073520015    1.06605535189011    6.02310989933610
C         5.86700449783315    0.73181686683759    5.17673006158941
C         5.84095211035256    1.12184399850334    3.85059725546366
C         5.08328544613862   -0.11182461569279    1.17026090896263
C         4.19750215619553   -0.79684270938296    1.99733384497771
C         4.37052205762743   -2.14616141657629    2.24140929755264
C         5.42934156543592   -2.82891187480986    1.66603916548686
C         6.31043031908333   -2.15708995079100    0.83575529240187
C         6.13625584887003   -0.80840416953772    0.58480600026027
C         4.61979207525052    3.51683121724197   -2.15938153028719
C         5.63226848765761    3.12279859627408   -3.02933309546470
C         5.60891165013782    3.51390507365419   -4.35520810775366
C         4.56940147807584    4.29494820861077   -4.83111035434250
C         3.55134837258298    4.68053778367827   -3.97504696459819
C         3.57521038199784    4.29651942985766   -2.64757468213115
C         4.26653780599124    5.47135300530771    0.03192049683222
C         5.24475833337868    6.20927749609572   -0.62754515417854
C         5.11858047424208    7.58100337300596   -0.74577651843406
C         4.02294339776318    8.23368109385634   -0.20473971794971
C         3.03046625783213    7.50589726907070    0.43130520025938
C         3.14748292486970    6.12912678170844    0.54582663927960
C         2.82857820256047    5.23904602602211    7.36631498159590
C         2.84158940127147    6.62177414235386    7.18905019821815
C         1.65817019061624    7.32184192667494    7.03747591654519
C         0.44872499288480    6.64904513639231    7.06358944976909
C         0.42629613428233    5.27614481619495    7.24337372105771
C         1.60615583688119    4.57327741035960    7.39373933870942
C         3.30873803669449    3.40926762098207    9.62514909776497
C         2.70705285436703    4.47052821918031   10.29487401599640
C         1.74937222956043    4.23224868939602   11.26238891409795
C         1.37830049318802    2.93423286659404   11.57211000313647
C         1.97763483877780    1.87255694239033   10.91623256751538
C         2.94094160653874    2.10788995057907    9.95248660159819
C         7.91361863032134    2.61575980191103    8.03035876424967
C         7.98592796818612    1.23922662120210    8.22257467303885
C         9.20632344981921    0.61904126472044    8.41653985600027
C        10.37083195926617    1.36759008569699    8.43416334441454
C        10.30652627936054    2.74042924119548    8.26451295495561
C         9.08817929657971    3.36168871611886    8.06350135542948
C         7.47473697978314    4.49228360366155    5.81222333643429
C         8.12986337030327    3.52656596983487    5.05562712136566
C         9.18098875603285    3.88521804352911    4.23213749485445
C         9.59939471514780    5.20357177749030    4.16781902351190
C         8.95085520005360    6.17092095543410    4.91592572549446
C         7.88602936330971    5.82085486614645    5.72624910963830
H         5.01111763726424    1.04857255341163   -1.21876903620448
H         5.73996464206154    2.34793526224308    9.54414593295132
H         2.84657909701853    2.69473013677218    3.82394739512345
H         2.92749496383894    2.04845331762638    6.19043894930652
H         4.83734327992415    0.75140936531297    7.05536401242492
H         6.70443150665211    0.15967039492414    5.54990688270333
H         6.65781820910710    0.86521167100093    3.19195981346386
H         3.36325826910116   -0.27096705711506    2.43746495129594
H         3.67480994321132   -2.66749907806289    2.88221334274995
H         5.56525819372465   -3.88222259451615    1.86124326993835
H         7.13623811718002   -2.68539568300895    0.38210681610435
H         6.83080612758913   -0.28235630567884   -0.05458676219862
H         6.45144573034729    2.52519127159628   -2.65581568046653
H         6.40514628184772    3.20984857107805   -5.01880968277662
H         4.55181569233257    4.60068049435113   -5.86654410649817
H         2.73443074664636    5.28350664557495   -4.34278240864994
H         2.77275754923049    4.58897183931701   -1.98722363359658
H         6.11477833599140    5.70616711039911   -1.02122409704939
H         5.89035167918487    8.14452041045859   -1.24642030149926
H         3.93958830856616    9.30683022510034   -0.27824257096804
H         2.16217786996837    8.00462006097372    0.83752687330930
H         2.34158444465536    5.55142343855402    0.98318498456767
H         3.78454148735129    7.15523113018484    7.19489724643884
H         1.68794478666376    8.39050945055969    6.88898820435038
H        -0.47403152705208    7.19298917748021    6.93659406709835
H        -0.51432302968490    4.74759200166647    7.25668439078124
H         1.58223685005308    3.50163244106334    7.52550216286692
H         3.00005303818757    5.48326617937730   10.06176307448866
H         1.29015289732640    5.06342322871541   11.77644954738961
H         0.62564368516593    2.75049625303943   12.32416652280022
H         1.69334902048348    0.85809443703287   11.15498383500912
H         3.39972332699695    1.27826653191173    9.43321143702548
H         7.08001215342150    0.65107543425665    8.20463708566846
H         9.24874467388950   -0.45161602092632    8.55514630100853
H        11.32415289265169    0.88345302908526    8.58499420899214
H        11.20985487750021    3.33164613925188    8.28924590717750
H         9.04476775825641    4.43380476036405    7.94606223901899
H         7.80966776372964    2.49775033049677    5.12121503344632
H         9.67937634837938    3.12932653135782    3.64327901667683
H        10.42343492838895    5.48052935615181    3.52923340982425
H         9.26438710752577    7.20145574141974    4.85795828277367
H         7.38237884226456    6.57607481125071    6.31722947100499

