134
CSD_code = QUGDUR | q = 0 | S = 0 | Stoichiometry = C74H56ClO2Ta | MND = 5
Ta        1.62872482202591    0.50727979720589    4.29891599807237
Cl        2.48742498259753   -0.76029945990702    2.51744644326914
O         0.65834303371416   -0.92165703710659    4.80806941066562
O         2.62035066750064    1.90376610079366    3.74383640262793
C         2.54391972870976    0.63681714556071    6.44282995248822
C        -0.28227375851041    1.84763250516006    4.22453858113684
C        -0.02783043805872   -1.98078502013182    5.22244784109433
C        -1.38572441702264   -2.12504426812189    4.87962386538891
C        -2.13763608898844   -3.16159356844895    5.43787212362535
C        -1.53854910583577   -4.04487921607912    6.32531298152921
C        -0.18421566276925   -3.96109856647688    6.61802118227733
C         0.58260087490439   -2.93597177413492    6.06008973639618
C         3.30907576643479    2.95718353759429    3.31937027992831
C         4.55239447274780    3.27208122924384    3.90034966986343
C         5.20177990428115    4.45906930489998    3.55342078650327
C         4.61587621440035    5.32027835764358    2.63590698180857
C         3.42683763609673    4.99119388906788    1.99993722453244
C         2.77162393648433    3.80208576141554    2.32759442697091
C         1.59339402001281    1.10580136420047    7.46678641130542
C         1.75185934614582    2.35927745794326    8.05986313711163
C         0.92521679910534    2.77040869272935    9.08739028874573
C        -0.09304084214688    1.94649185971930    9.53590057341829
C        -0.28262911238232    0.71070083227971    8.93933246787898
C         0.55169348306379    0.29333897024982    7.92144129650379
C        -0.34097039355399    2.86525735235832    5.28946772311386
C         0.48796055616768    3.98967619742258    5.27073040325558
C         0.36473780922787    4.97926899946783    6.22573276428366
C        -0.59514418542104    4.87616591708234    7.21923127918257
C        -1.41456715730621    3.76100737023793    7.26159503292481
C        -1.28289708905756    2.76410257027539    6.31444484001310
C        -1.99626768363351   -1.18013232064175    3.92779264622628
C        -1.43222599998635   -1.00528178101634    2.66544763424504
C        -2.03294684572403   -0.16268028208015    1.74753163488699
C        -3.18239449422116    0.53182724582164    2.08421148941781
C        -3.73716991617364    0.37731388231373    3.34372841779609
C        -3.15251862937800   -0.47803263462831    4.25903019865429
C        -3.55529261688191   -3.35905027554281    5.08203001751486
C        -4.51279786843269   -3.48665536540215    6.08361805837093
C        -5.84376974366883   -3.68203853744689    5.76318321652303
C        -6.23405866407928   -3.76310358745525    4.43747506886088
C        -5.28544488448192   -3.65223345442988    3.43434757315720
C        -3.95553859289123   -3.45129216736357    3.75216504379016
C         0.42058883244860   -4.98025713877600    7.49647524069865
C        -0.13581453615655   -5.23667131998467    8.74579584708727
C         0.41436996943778   -6.19517772378845    9.57692869958461
C         1.52166180220448   -6.91746473560356    9.16606064669323
C         2.07286305439882   -6.67882607439600    7.91808526538384
C         1.52806822607936   -5.71725527629821    7.08798327281828
C         2.03118887211388   -2.85514120131828    6.32496348392777
C         2.92301104285020   -2.87915197525648    5.25489402275107
C         4.28694181019603   -2.88105252374182    5.48474977575799
C         4.77519922322616   -2.83954336080464    6.78015506058545
C         3.89355604634631   -2.79261669070362    7.84733316426375
C         2.52904243172768   -2.80600869348947    7.62443123779574
C         5.15716205592204    2.33782044455600    4.86626413632543
C         5.37458147501059    1.00971632022639    4.50463614344695
C         5.99324694649969    0.14244384070449    5.38704886295346
C         6.37684834531128    0.57969576263172    6.64336995679777
C         6.14633519085894    1.89347020908474    7.01604171961944
C         5.54612591713602    2.77024741958738    6.13169801779955
C         6.51810824304020    4.80717047118493    4.12037841128931
C         7.58469869806960    3.91528585492126    4.05785971227620
C         8.81697187527381    4.26101162724357    4.57971467478639
C         9.00180259881663    5.49944828483199    5.17153034413723
C         7.94897161118757    6.39668587138672    5.22974316738180
C         6.71698179871303    6.05525292385866    4.70286437814997
C         2.89485109666065    5.90075986138410    0.96745396872400
C         2.70371068667951    7.24696455688857    1.26284694589568
C         2.21287943398943    8.11397051993697    0.30393449084133
C         1.91700931231693    7.64894599179810   -0.96603571153866
C         2.11882068515514    6.31356223992333   -1.27291940511339
C         2.60359997155324    5.44384125361767   -0.31423149489995
C         1.53293694361349    3.41219059435566    1.62864433677680
C         0.42794837013297    4.25812340144738    1.58278989862207
C        -0.69745348717695    3.89539569065791    0.86607868404099
C        -0.72992265720382    2.69286549313664    0.17976295796035
C         0.36238150379913    1.84269798633319    0.22791395920120
C         1.48528555066906    2.19339482806449    0.95520513859995
H        -2.12130550582791   -4.85186179169906    6.74465960804767
H         5.12717803773361    6.23163356964064    2.36258102945583
H         2.55114161897107    3.00366912667363    7.72138720229046
H         1.08115052455179    3.73508651567130    9.54756750315205
H        -0.73306722944286    2.26396953070643   10.34570222373975
H        -1.07884291280072    0.06360514194700    9.27924845309447
H         0.40664802990191   -0.67971513476042    7.47529048596640
H         2.89647346753452   -0.36485342444023    6.68906178074773
H         3.40248685627829    1.30343075449011    6.41562710816464
H         1.22695455970913    4.08878572370183    4.48896026362183
H         1.01215665643910    5.84397456524124    6.18873979918427
H        -0.70459697667120    5.65998164277682    7.95404340521344
H        -2.16606185438708    3.67248956450798    8.03242037858587
H        -1.93309221327519    1.90109100376176    6.34760496889559
H        -0.28476888280027    2.32881137991589    3.24619111844712
H        -1.15801345502179    1.20654820009830    4.29144472750863
H        -0.54223683983991   -1.55862650313719    2.39468209369633
H        -1.60785538677416   -0.05791131414857    0.76211451925236
H        -3.64771074509192    1.19036598383379    1.36614682811417
H        -4.63123153607317    0.92039839864999    3.61263892086270
H        -3.58735265064868   -0.60303251924621    5.24014464604323
H        -4.21017600325820   -3.41418607711427    7.11870152783659
H        -6.57861874860469   -3.77101616865168    6.55024488129727
H        -7.27342950319306   -3.91543285269771    4.18661570731157
H        -5.58382376410714   -3.72359587615493    2.39865134238042
H        -3.21762810223788   -3.37589547030144    2.96758065727250
H        -0.99484781062293   -4.66675512305463    9.07059170330735
H        -0.02188544796048   -6.37903263894966   10.54814923384002
H         1.95169697029487   -7.66608203001749    9.81498973589315
H         2.93158702367104   -7.24564225866407    7.58931578780991
H         1.95440735569685   -5.54164920057718    6.11168718694143
H         2.54393873455952   -2.93937624617836    4.24410338779375
H         4.96417584111880   -2.93479282618414    4.64503803628391
H         5.83995914399116   -2.85062134023963    6.96078348680818
H         4.26944307003154   -2.75358837807305    8.85911167497902
H         1.84424230696804   -2.77601767928469    8.45927503626387
H         5.08928318942667    0.66906710565311    3.51766578703584
H         6.18645986072010   -0.87498615503941    5.08666598855447
H         6.85785944064775   -0.10006048755394    7.33064768850426
H         6.43991955069748    2.23834142132437    7.99657767889826
H         5.37024524750370    3.79656038265676    6.41982216913256
H         7.44720779967369    2.95287678616245    3.58811448369414
H         9.63781783138784    3.56108688296729    4.52386124261098
H         9.96404372209413    5.76576117699861    5.58339240570785
H         8.08848852080406    7.36536984025731    5.68753238460862
H         5.89255693309972    6.75216224359715    4.75647272319085
H         2.92632728920896    7.60812729822134    2.25694347762975
H         2.06030816124244    9.15531620081784    0.54824173026599
H         1.53319449946531    8.32576258513723   -1.71507147292186
H         1.89778082904433    5.94774808412853   -2.26491877792464
H         2.76904522315879    4.40557823195424   -0.56002010695391
H         0.45215867533090    5.19977454610720    2.11142098686978
H        -1.54911690414464    4.55894540239286    0.83657254340932
H        -1.60315525270650    2.42446365403159   -0.39636270536130
H         0.35515407930832    0.90961367453783   -0.31612440726130
H         2.34765787136192    1.54134311930547    0.96825961349665

