107
CSD_code = QUGDIG | q = 0 | S = 0 | Stoichiometry = C30H62N4O6S2Si2Zn | MND = 4
Zn        3.61013177610378    4.45027577514760    6.51116574201008
S         2.41016054529637    4.86861364702509    8.45501844702763
S         5.53859816136892    5.33589359637766    5.56519887352207
Si        3.70964838537157    4.12610420362997    9.92885542285171
Si        5.60815815835386    4.46731286166338    3.65796833963417
O         5.26120244010414    4.02286841442102    9.45030902200540
O         3.19933118205338    2.59471110846860   10.14817801509895
O         3.67162596884015    5.02674168132809   11.28728876582472
O         4.72982139461064    5.20685611196875    2.49840540368063
O         7.12869184819041    4.46515503835462    3.07291869851437
O         4.96067359707098    2.98272125736766    3.84064761454734
N         1.91944427740372    4.60218277614799    5.16682268540986
N        -0.18216032890664    4.98482088068023    4.71222475679894
H        -1.17631584666067    5.08774557464251    4.83571754640234
N         3.96652883681517    2.38277549378187    6.70492031849681
N         5.15425213501208    0.58455067827008    7.04347307081904
H         5.95273448129304   -0.01974889407328    7.15097569524100
C         6.36523089289845    4.89952807058885    9.61701888460454
C         5.98293538984489    6.33124865599305    9.25566812570685
H         5.62150909895346    6.36403458865785    8.23002042304640
H         6.84651116339037    6.98484174695639    9.34638294421497
H         5.19544951548626    6.67781782576236    9.91676991537908
C         6.83781698485641    4.82470887207956   11.07208056882633
H         6.01932515855862    5.10906318780663   11.72669871075242
H         7.67807510675050    5.49545132037244   11.23148791800253
H         7.14437612890255    3.80939571203481   11.31707605445142
C         7.46028819767151    4.40350096330653    8.66914936382521
H         7.65752223338666    3.34732423458052    8.84240176274689
H         8.37559354735810    4.96684771606818    8.82834530537774
H         7.13097512780285    4.54923944633317    7.64362499307393
C         3.63502350099497    1.58133187028398   11.03487540853012
C         4.98195813604726    1.02666807354286   10.56323481705851
H         4.85291786004897    0.49189010325589    9.62739070234190
H         5.39679329160312    0.35031705631603   11.30681009254357
H         5.66433620433746    1.85417256943233   10.39794410472868
C         3.77690548884573    2.11727062701240   12.45891750733941
H         4.53168537290788    2.89697102046724   12.48338814654890
H         4.06012986150920    1.31579383145329   13.13743068272446
H         2.83294547531230    2.54230793849721   12.78832672091558
C         2.56379966318517    0.48621064096057   10.98920247003359
H         1.61886706660633    0.88066939972837   11.35307259780274
H         2.85894272936290   -0.36069309617320   11.60367089324888
H         2.42278200746746    0.15750197721703    9.96272857317297
C         2.66321324897311    5.81410836824452   11.89966493145584
C         3.08737276411604    5.98467980347664   13.36276835050035
H         3.13779515833864    5.01586408610401   13.85371170927980
H         2.37391706871597    6.61308451843063   13.88882081870011
H         4.07001339041851    6.44786193874392   13.41247990903378
C         1.30252054607387    5.12600762468616   11.81444175333688
H         1.02695586551583    5.00869605042671   10.77028421590103
H         0.54910743801103    5.71984206029651   12.32508136965048
H         1.34973339568341    4.14121087998846   12.27107944448032
C         2.59468426917471    7.17522419756857   11.20333058057327
H         3.54550667887740    7.69519147210703   11.29574363217791
H         1.81456329262890    7.78620512642556   11.64914094464698
H         2.37460622504361    7.02389552076746   10.14969693569287
C         4.96779390844863    6.40514639692699    1.77354760485830
C         5.53056365123395    7.48869936359900    2.68832316968134
H         4.87909784659670    7.62123135514486    3.54809055275551
H         5.61573194178780    8.42989415518849    2.15159772851009
H         6.50800258288379    7.18969929828357    3.05329079676576
C         3.61698153730764    6.84988477730858    1.20060349773841
H         3.16380725672312    6.03670946149143    0.63786002374118
H         3.75779150491225    7.70027191670450    0.53894378373553
H         2.94327102674624    7.13518802234213    2.00454491565445
C         5.94847258901840    6.10353933318742    0.63800939401597
H         6.85547044093425    5.68143789473728    1.05925469585734
H         6.18855064099148    7.01252365231782    0.09313649437759
H         5.51429592406137    5.38107962662839   -0.04992543718119
C         8.41028731137059    4.30458405514428    3.65349838630808
C         8.85057090089905    5.63362179374721    4.27073116987648
H         8.92141930062856    6.39803451628657    3.50068666205522
H         9.81901220320089    5.52419396683989    4.75074448680210
H         8.11405191265420    5.94562397552117    5.00706747020328
C         8.38721629720649    3.21761883487015    4.72685418183718
H         7.77259670471553    3.55804628030981    5.55442479877692
H         9.39331995211505    3.01723551297872    5.08548370097123
H         7.95965423288956    2.30388611600182    4.32066828202717
C         9.35144084704168    3.90613060550063    2.51104033016981
H         9.03497155957775    2.96126280638366    2.07595914011195
H        10.36854613341445    3.80578439361112    2.87979398823667
H         9.33129677990800    4.66516998542457    1.73313773978670
C         4.65230589210635    2.00430206325671    2.86139996406594
C         5.71929630711911    1.95669451028832    1.76947894011532
H         5.77772570479922    2.91958848586790    1.27243387339705
H         5.47747705001689    1.18733818796137    1.03996645794029
H         6.69041521915336    1.73999648345346    2.20657286293653
C         4.59022323998961    0.65588428685506    3.58662052704160
H         5.54839408293459    0.44242752092221    4.05488678953391
H         4.35688503688426   -0.13808961762968    2.88167330378307
H         3.82277460667000    0.68601158646043    4.35509765072667
C         3.29104350774301    2.32767780664400    2.24491978120513
H         2.54303431332003    2.39944882340565    3.03035840543222
H         3.00040261004743    1.55488929582669    1.53749802438274
H         3.34917214427785    3.28315547957193    1.73333081376217
C         0.70148197184424    4.60542542347439    5.65055961564603
H         0.45762905853537    4.37196673817213    6.66736136015625
C         0.52038297756473    5.24076485656441    3.56759469641829
H         0.04756862181592    5.56428366266868    2.66369526611400
C         1.82653177242250    4.99846558891159    3.86904683128538
H         2.70097249015294    5.07573958314892    3.25812439084040
C         5.17764819103676    1.89673445855196    6.75811333460708
H         6.06927460174753    2.46287888228322    6.58783404602923
C         3.84356808736457    0.22293307501142    7.19064319097397
H         3.54840674343549   -0.77984368287799    7.42239514009259
C         3.11956219038116    1.35681309857666    6.97923242275711
H         2.06069703327823    1.50954910119469    7.01604405272257

