81
CSD_code = QUGDAX | q = 0 | S = 0 | Stoichiometry = C41H35Cl2O2Ta | MND = 5
Ta       -0.35055042690245    4.02667726837220    3.52479006231233
Cl        0.35363828174440    3.33638955161259    1.48071126726330
Cl        1.81533787373671    4.42197529810209    4.06465414501452
O        -0.73457507795562    4.36532733287149    5.28238356243455
O        -1.97157989956463    3.33221196670561    3.20767367397662
C        -0.90894916913375    6.09909885370715    2.64246869615700
C         0.29590319740424    6.87363335745257    2.13113310301949
C        -0.33576918303112    8.00151471174851    1.29875409333515
C        -1.70805915003376    7.46303508634589    0.84364921440840
C        -1.80123252291624    6.03787059600486    1.41179246616583
C        -0.29181482882008    4.43490135652446    6.53261641892952
C        -0.44007925249773    3.33226030909047    7.40071346228814
C         0.17980278419548    3.35115836406725    8.64473994744171
C         0.92863928061284    4.43834728139429    9.05278989453405
C         1.03862614657337    5.53863185283106    8.22367677000021
C         0.42707844012103    5.56101642696533    6.97646036384996
C        -2.99403807187202    2.51380150201594    3.03660294447401
C        -4.32410689582033    2.97906455981668    3.05505314620849
C        -5.36170432819527    2.06604055810829    2.88730719101957
C        -5.11138720734327    0.72345390447678    2.67979731134086
C        -3.80457475388661    0.27354783865551    2.60706483656982
C        -2.74319482626724    1.14747902495657    2.78449166639618
C        -1.24764366476636    2.16518419910252    7.00755358192216
C        -2.51198645203981    2.33254548688863    6.44499816717296
C        -3.28281462863926    1.23673168255477    6.10156605319360
C        -2.80239866811359   -0.04464218990831    6.31448094527163
C        -1.55219696524517   -0.22430300040941    6.88383682704983
C        -0.78065211718152    0.87021804371485    7.23035161655810
C         0.49066413056655    6.79192436054429    6.17004521357590
C        -0.68666715794105    7.40347065074326    5.75001779727276
C        -0.64958184650712    8.61886561476047    5.08932078172756
C         0.56528047207216    9.22964889399254    4.82854850518063
C         1.74287001494150    8.61955182822973    5.23073843978703
C         1.70776528508461    7.41274383416650    5.90452238745060
C        -4.62731776530756    4.41305123460253    3.20024374237207
C        -3.96165020656589    5.22143851661192    4.11940647953386
C        -4.27910643543704    6.56375215176252    4.23053415256859
C        -5.25182389065967    7.12508406144251    3.42121849714974
C        -5.91143219992502    6.33322274611385    2.49627211093447
C        -5.60553648010904    4.98972761060057    2.38967799755506
C        -1.35008128107791    0.67313615332126    2.65867681595145
C        -0.92237773619316    0.09250310346614    1.46868830692359
C         0.39247649087764   -0.30949712003830    1.31896431364859
C         1.29667772734776   -0.14323528101462    2.35473792047985
C         0.87686838936229    0.41281052373049    3.55147643229135
C        -0.44002824105136    0.81933379216961    3.70559119484687
H        -1.41259091823773    6.68185739746606    3.41720569743797
H         0.05296591009820    2.50303340941777    9.30137931604082
H         1.40865089700763    4.43549318597228   10.01942529923462
H         1.59215349432541    6.40901684844709    8.54407194516538
H        -6.38036460101382    2.42159307912018    2.93719651691281
H        -5.93116390924142    0.03126318261428    2.56180775964204
H        -3.59434253539479   -0.76949250631685    2.42188647324677
H         0.92792558225012    7.25434630810921    2.93287625755371
H         0.89842418327859    6.23183409057398    1.48374235693667
H        -0.46274710355679    8.89145742723100    1.91465817722484
H         0.29544933944410    8.26832491413991    0.45291985757931
H        -1.80518361858582    7.46326283361213   -0.24050148757656
H        -2.51138196724483    8.07739083587332    1.25082166599257
H        -1.39223776504889    5.32534734867196    0.69272807080414
H        -2.82648822198193    5.75189849323168    1.64284124740210
H        -2.90216129216396    3.32969305189452    6.30616933122913
H        -4.26153302890389    1.38336182554403    5.66913059103804
H        -3.40235431453105   -0.89921519641845    6.04034600752705
H        -1.17468638133122   -1.22175844686245    7.05476025491550
H         0.20043344482011    0.72631839717035    7.65905010806255
H        -1.63165172454394    6.93035304981897    5.97764715467052
H        -1.56992452296439    9.09508612606505    4.78189237764746
H         0.59635458418866   10.17935871109027    4.31490741420874
H         2.69222590516910    9.09075558272628    5.02226760123526
H         2.62447826603319    6.93599925175859    6.21704980442225
H        -3.19360247281368    4.79575347830285    4.74813968874809
H        -3.76800527085131    7.17831277130222    4.95686851304065
H        -5.49387093228223    8.17389581997455    3.50867531077316
H        -6.66601039485440    6.76437630684921    1.85481476147617
H        -6.11183014980306    4.38144301772935    1.65472220766972
H        -1.62192902476427   -0.01941980656614    0.65296653195484
H         0.71608334112693   -0.74478993486880    0.38506235067782
H         2.32551411461295   -0.44565945668803    2.22901709750507
H         1.57147320184679    0.52797851264805    4.37191945590297
H        -0.78368929776075    1.19152619136832    4.66124176614615

