134
CSD_code = QUGDOL | q = 0 | S = 0 | Stoichiometry = C74H56ClNbO2 | MND = 5
Nb        1.59156448701308    0.54351846660370    4.33016438681102
Cl        2.47298778048153   -0.73651407439010    2.52116204372272
O         0.63884667140714   -0.87618562210422    4.82540752201545
O         2.57009966450589    1.92653404419112    3.78307410013488
C        -0.30700055123514    1.85598859988621    4.19258901685307
C         2.53288007254868    0.62898625269682    6.44145200011381
C        -0.04201943585306   -1.93497085227264    5.22802285271264
C        -1.39835195788419   -2.08464028496825    4.87465139454136
C        -2.15265577917117   -3.11768313708230    5.43527124813097
C        -1.55863372442140   -3.99243331050722    6.33507152892019
C        -0.20321793494624   -3.91470183774448    6.62501108607679
C         0.56791773702323   -2.89565031869108    6.06237757075120
C         3.26200799393783    2.97124632054352    3.36282987379167
C         4.50772977837966    3.28045810584189    3.94561990309497
C         5.15538503049123    4.47148091108350    3.61023811220493
C         4.56863776171175    5.34043662913322    2.70011768804790
C         3.38784603272312    5.00993167008219    2.04910571168012
C         2.73354981936723    3.81755140162991    2.36509700127026
C        -0.36895669912153    2.84897707347696    5.28087462887822
C         0.43372510940205    3.99451803401900    5.27388489658794
C         0.29485783823871    4.96445997524770    6.24700082309573
C        -0.65409268008030    4.82192885556021    7.24612218615593
C        -1.44503650317936    3.68566080968104    7.27851068166219
C        -1.29777730730409    2.70709740272475    6.31512798015266
C         1.58059819451706    1.10123552886416    7.46387551273655
C         1.73568082039890    2.36303654940867    8.04382389510299
C         0.92355714706726    2.77378654081332    9.08264809801264
C        -0.07801970945673    1.94302453786698    9.55641821664903
C        -0.26760074274519    0.70151752255474    8.97192770018951
C         0.55246471861993    0.28278456878590    7.94268376444320
C        -1.99222244161575   -1.15570895981160    3.89740617373531
C        -1.39033068046187   -0.99145581651376    2.64981295248771
C        -1.97563593596811   -0.17176144689523    1.70133469566620
C        -3.14438700724191    0.51141828876289    1.99294864367216
C        -3.73529066588240    0.36867241168912    3.23737124838242
C        -3.16768038369817   -0.46495925912082    4.18301666809595
C        -3.56498492763077   -3.32560269692460    5.06459897732293
C        -4.53577918497983   -3.44437456259763    6.05431375630768
C        -5.86102825458042   -3.65034284697975    5.71728708919054
C        -6.23180284684297   -3.75129489487552    4.38725688170171
C        -5.26946838868414   -3.65048071628843    3.39631135714263
C        -3.94525569357309   -3.43877758531545    3.73050772158422
C         0.39827972289665   -4.93714491235791    7.50203199147498
C        -0.14705945171420   -5.17981192039946    8.75880623447598
C         0.40044037224957   -6.14147701627509    9.58807310292926
C         1.49317002678879   -6.88020075799504    9.16749225673557
C         2.03256892252849   -6.65536875391404    7.91181342217542
C         1.49076404578425   -5.69064693053087    7.08351504034773
C         2.02264911181941   -2.83446307825459    6.29594598618299
C         2.88225985708586   -2.85667573614490    5.19839271928355
C         4.25193096781860   -2.88951556401093    5.38796704790078
C         4.77791855300400   -2.88171635926384    6.66957511997276
C         3.92943110485059   -2.83533687442690    7.76312122914185
C         2.55874105569289   -2.81682372384211    7.58102669486260
C         5.11723806560970    2.32437875066391    4.88636001759888
C         5.30829901030659    0.99953113177282    4.49377341867763
C         5.93844478253992    0.10933047424372    5.34485568673212
C         6.35706749965341    0.51869187080339    6.59988014372051
C         6.15138921204466    1.82748552739158    7.00327704702057
C         5.54149824542669    2.72840643475952    6.15011045407533
C         6.47445660963955    4.81381608289421    4.17428589401208
C         7.53996793197057    3.92184785120398    4.09465884622738
C         8.77615619849128    4.26106746210488    4.61114391654236
C         8.96633003516379    5.49328476090854    5.21421694019777
C         7.91490943774055    6.39084332074864    5.28856005077286
C         6.67858530368249    6.05584207774461    4.76740148411332
C         2.86904589423560    5.91744538480567    1.00821133265693
C         2.66944119825658    7.26368315841516    1.29732078881134
C         2.19402158820117    8.12722328064092    0.32748023372040
C         1.92192655166981    7.65857392709902   -0.94647128578366
C         2.13229975787347    6.32300471052434   -1.24672837368460
C         2.60211437678246    5.45685571892443   -0.27753858863815
C         1.51583297669306    3.41073342044057    1.63979052657253
C         0.40296913735569    4.24335275714332    1.55296289309306
C        -0.69518946489425    3.86099628380260    0.80458813075279
C        -0.69157446653289    2.65275999419607    0.12773620762056
C         0.40855764900992    1.81552243199513    0.21646116614019
C         1.50424242432357    2.18498871928697    0.97548863223399
H        -2.14479253252422   -4.79388871950346    6.76023658562855
H         5.07792432445264    6.25624632091053    2.43826519875502
H         1.15808934266770    4.13146887040637    4.48177814862589
H         0.91959676721187    5.84608661036315    6.21809952368755
H        -0.77797969834787    5.59222942503054    7.99278091585364
H        -2.18759309069276    3.56716419806038    8.05396036413289
H        -1.92762287841039    1.82766584110398    6.33897505187075
H        -0.28708947612472    2.36122452333445    3.22286294466126
H        -1.19762144289478    1.22729066903693    4.23152673027705
H         2.52478049410607    3.01186870113400    7.68756753689524
H         1.07864628724350    3.74304705429256    9.53354220969598
H        -0.70467743142610    2.25985527265595   10.37691078891211
H        -1.05098632740941    0.04953207634246    9.33199407161443
H         0.41192044969149   -0.70064831430995    7.51415329313987
H         2.87607287082476   -0.38060137933736    6.68544507205548
H         3.40027755229780    1.29049710083209    6.43103719694751
H        -0.48589213282430   -1.54033854738904    2.41072980782197
H        -1.52408493567587   -0.07820756267304    0.72658468399937
H        -3.59688086909765    1.15216761977105    1.25088121933618
H        -4.64433409887709    0.90341406614581    3.47063130042720
H        -3.63063915572239   -0.58165873481454    5.15236125276628
H        -4.24820092152838   -3.35669969542410    7.09253957527212
H        -6.60694876237171   -3.73203869242154    6.49464997325374
H        -7.26690791208600   -3.91146266506171    4.12396049498216
H        -5.55206965481297   -3.73809252920555    2.35745486429789
H        -3.19615943991970   -3.37133712865436    2.95571540474647
H        -0.99493585480608   -4.59706069246133    9.09023919527856
H        -0.02657608295424   -6.31509061281978   10.56525049634523
H         1.92102390788960   -7.63125489490590    9.81503457826270
H         2.87965199628261   -7.23523167283530    7.57572138407387
H         1.90735964598200   -5.52495709435719    6.10118983958257
H         2.47218005661335   -2.90088662523582    4.19705781780348
H         4.90332712378606   -2.94374177748064    4.52769087634250
H         5.84710321762031   -2.91947832844962    6.81847218782467
H         4.33564196297195   -2.82247332760139    8.76384071858183
H         1.89945381235681   -2.78768459416533    8.43644412580646
H         4.99989142782053    0.68041038778592    3.50408640150305
H         6.11477948880417   -0.90378867473878    5.02042023417237
H         6.84600238976668   -0.17998025828740    7.26228546807163
H         6.47260442853487    2.15003059001686    7.98282085792474
H         5.38555903591995    3.75130483127885    6.46147909750975
H         7.39848652691153    2.96456329369334    3.61554885359904
H         9.59570702091756    3.56087501157453    4.54184861662769
H         9.93181233955290    5.75470597488693    5.62152746845366
H         8.05852189934838    7.35512305611484    5.75429787348335
H         5.85570894075514    6.75350580000407    4.83404005513696
H         2.87350374793557    7.62787304208626    2.29434359625150
H         2.03514098851665    9.16891075435465    0.56623444631027
H         1.55050465614284    8.33289408562471   -1.70395915836257
H         1.93024295603348    5.95419670177908   -2.24165611313313
H         2.77528889558357    4.41858014267278   -0.51816652143590
H         0.39998295998123    5.18971911073932    2.07417548068447
H        -1.55327904526615    4.51405190276649    0.74282964666471
H        -1.54297863611228    2.36963332136982   -0.47363882755430
H         0.43048409819524    0.87915221301276   -0.32207142725851
H         2.37794730185291    1.54621776991892    1.01335452327472

