98
CSD_code = QUGDIF | q = 0 | S = 0 | Stoichiometry = C44H48ClO2Si2Ta | MND = 5
Ta        0.10019620142464    0.14030815254539    0.06818411040731
Cl        0.78062077541403    2.22235568090281   -0.68478646745161
Si        1.21478551665295   -2.00647497872502   -2.50510283998322
Si       -1.13549185635429    1.97909573254209    2.70490613456875
O        -1.33154305281788    0.05727578653737   -1.04776539914522
O         1.49728113148099    0.02672929887835    1.21071478576687
C        -2.14319668982946   -0.26810790752306   -2.04880210835264
C        -2.81614996281294   -1.50790317654989   -2.06015801519052
C        -3.49899762304930   -1.91314978528213   -3.20043319455644
C        -3.56151217526816   -1.10582342923231   -4.32062789802379
C        -2.97167108643174    0.14374810346970   -4.28833712284508
C        -2.27849398259797    0.58248906650197   -3.16700853405819
C         2.47748933745308    0.10967235874136    2.10080691856822
C         3.62545729933944    0.87759846817783    1.81791808239396
C         4.58825085332388    1.07229078137529    2.79901615551623
C         4.45181259383896    0.50700787051119    4.05321177715371
C         3.34413837198921   -0.27200435001293    4.33003239403442
C         2.35944997318986   -0.48686832656007    3.37374517963836
C         0.67859986175436   -1.93477167488080   -0.68419107518235
C         0.12319074763110   -3.19175576440815   -3.54279028532750
C         1.14816855157773   -0.31372190231224   -3.39112451022937
C         3.00254254794840   -2.69611468124695   -2.62425384624577
C        -1.27776474527578    0.27939888256018    1.87095018760796
C         0.63952216046930    2.59035979112588    3.05922662512520
C        -2.07404439262717    1.89671882774776    4.37466189112466
C        -1.97968640821948    3.29149385132721    1.59830702952587
C        -2.85719017919765   -2.36970223773075   -0.86400087498698
C        -2.46739273040192   -3.70521676497059   -0.91900774609208
C        -2.57108840325372   -4.51113069456819    0.19997079853823
C        -3.07053110127416   -3.99830755187482    1.38581482711552
C        -3.47561490737176   -2.67613435239165    1.44595639554236
C        -3.37677124761888   -1.87029859182827    0.32604732152060
C        -1.73491291702575    1.95241210648030   -3.14653780759979
C        -0.97382378215741    2.44014729635343   -4.20520422937593
C        -0.51716844320418    3.74447793597003   -4.19636331926541
C        -0.83557522937866    4.58623173848481   -3.14443397401796
C        -1.60710243463161    4.11511835282101   -2.09656384998706
C        -2.04599796263198    2.80398424832677   -2.09084678931270
C         3.81444703721952    1.46991247472518    0.48247502484382
C         4.10695481728833    2.82325989814191    0.34338993507585
C         4.31998806019092    3.36683720371315   -0.90934959295461
C         4.26859583447418    2.56222180741521   -2.03494967915223
C         3.98925003523750    1.21251794338604   -1.90489775289787
C         3.74785276580904    0.67060499384750   -0.65521469976368
C         1.19497403684715   -1.32386994927027    3.70949639244863
C         0.45176735577591   -1.07066702423131    4.85965346601847
C        -0.63782989770674   -1.86086455217199    5.17746409037973
C        -0.99530358051311   -2.91811019569940    4.35702439470985
C        -0.25147584690819   -3.18870832002401    3.22070913902309
C         0.83634781084637   -2.39750813280035    2.89927051228503
H        -3.99853425347980   -2.87115965674858   -3.19107086164745
H        -4.08914971230257   -1.43700203255003   -5.20191613391041
H        -3.05812272021094    0.80729649277009   -5.13633423234227
H         5.45851346082902    1.66623807452281    2.56092147847440
H         5.20747788227590    0.66566223528209    4.80733429286770
H         3.23549205460796   -0.73750427760798    5.29893176222740
H        -2.07959560939229   -4.10807556075439   -1.84210262556795
H        -2.26510597507489   -5.54607290213865    0.14477387554860
H        -3.15860431264848   -4.63256285391876    2.25552253346778
H        -3.88055551837532   -2.27490242421818    2.36324371247196
H        -3.74621836732412   -0.85496330327077    0.34903426495049
H        -0.72748716154453    1.78846854818878   -5.03140825378558
H         0.08642919280262    4.10714598529059   -5.01585957727107
H        -0.48327801093907    5.60712524346333   -3.14124777313449
H        -1.86678654090823    4.77355265739613   -1.28060725196796
H        -2.65275916646186    2.43490580878325   -1.27542650346735
H         4.14646421457235    3.45010380483738    1.22274306119023
H         4.52998296560126    4.42190487116200   -1.00819568965491
H         4.44346498734910    2.98696149176688   -3.01243701666119
H         3.96228185949007    0.57855333874444   -2.77868488362474
H         3.53408119360182   -0.38494933403219   -0.54949284932207
H         0.72464187547312   -0.24148769227331    5.49618129674460
H        -1.21096983127413   -1.65200021378401    6.06923351925866
H        -1.84672467435993   -3.53298763944729    4.60797297773814
H        -0.51591698223548   -4.01833135974825    2.58268511039328
H         1.43307086919649   -2.62630370443955    2.02967332704367
H         1.49459298901149   -2.32859640051445   -0.07844126237548
H        -0.17159024102133   -2.59588180098323   -0.52101211416064
H         0.50731175954757   -3.27143958835540   -4.55512098208827
H        -0.89928063446410   -2.83334762255653   -3.61034128327415
H         0.10505142873444   -4.19322829844682   -3.12440214971209
H         1.46753794227880    0.50888040916490   -2.75567867481559
H         0.13226274455402   -0.10552760908550   -3.71174997326501
H         1.77340878336063   -0.30520136799867   -4.28018595003520
H         3.72751261781600   -2.06906477019276   -2.11585559704021
H         3.31402004298235   -2.77825738886363   -3.66076302984778
H         3.06689240411559   -3.68818710909543   -2.18792808003528
H        -2.30844694869201    0.14547790049973    1.55424215092787
H        -1.06015120674742   -0.51635278221638    2.57743690147040
H         0.62101196010881    3.58237368686007    3.50188482104760
H         1.21791609835329    2.65162501781353    2.14144680866642
H         1.17077488506514    1.93747565451038    3.74426173799024
H        -1.65701417965341    1.13907202522899    5.02908988252762
H        -3.12285990460879    1.66129819787580    4.22851303235676
H        -2.02228325552955    2.84719680961282    4.89434601840588
H        -2.99718209247736    3.01270415299420    1.33944601286011
H        -1.42011335373268    3.42145971975135    0.67722665515991
H        -2.02521659448244    4.25545125842999    2.09621555689355

