43
CSD_code = QUGFEE | q = 0 | S = 0 | Stoichiometry = C20H16N4O2Pd | MND = 4
Pd        9.49555911606626    1.40286229560354   14.70018556830684
N        10.48662743219643    1.40281920020823   12.84244996960296
N        10.79197212726930   -0.00956777244656   15.01727838577527
N         7.79265043732794    2.63346018713534   14.84633352495818
N         9.11907540753387    1.22306403246822   16.59779769218733
C        10.80081748451244   -0.43957963198066   16.34609859793149
C        11.61522538728970   -1.44603391626367   16.85245130510370
H        12.28124253573993   -1.97163049361986   16.18750728487892
C         9.91469365647804    0.25329688792626   17.21205738831467
C         7.62734895685903    2.96931116452832   16.14138151557967
C         8.41105598594242    2.19443857352530   17.18453584145072
C        10.68790372728707   -1.08340397152117   19.04529094585187
H        10.65130192894090   -1.33702245903592   20.09426893404055
C         5.92768687292780    3.99428628205388   14.27908941859986
H         5.24653694690305    4.34341674068210   13.51870185266108
C        11.13829848371412    0.22987025965377   12.71367741790992
C        10.58186521045591    2.31095356836615   11.86998694028153
C        11.77765326160742   -0.12365264130322   11.53319523327756
H        12.26937526519696   -1.08239471584893   11.48878871283513
C         5.82676033485858    4.43944693651093   15.58658623152511
H         5.08204907289798    5.17075451448552   15.86170913189721
C        11.30134140152100   -0.63485696098082   13.95008918123252
C        11.20638705861728    2.01634992117988   10.66142471125053
H        11.24775687785799    2.76797856592751    9.88860788479976
C         9.86672802752845   -0.07879591949532   18.56112709120085
H         9.19496894555557    0.45548084416333   19.21349095978857
C         6.66319737319360    3.88506337409965   16.54019547262833
H         6.59086876294265    4.12198518484899   17.58975900015772
C        11.77488053322516    0.76751123018988   10.47390525511776
H        12.24310045365367    0.51265378419100    9.53539396503271
C         6.91533868000971    3.07291075357633   13.94266637022771
C        11.54986619450842   -1.76268005838545   18.19911463147059
H        12.18013807885234   -2.54801615906618   18.58912910025084
O        11.90173716539544   -1.70157339081995   13.89313877122337
O         8.28332202316528    2.44494497175703   18.37723165785660
C        10.05886966522693    3.68367147473016   12.16129007871502
H         9.63566621878552    3.70974957714482   13.17259080217107
H         9.31227123160749    3.99176136215428   11.43300918301476
H        10.88212099356689    4.39569613684205   12.11325630782943
C         6.98686889758813    2.47477365743511   12.57163691534052
H         7.81819166577428    1.76129269980306   12.52380289320675
H         7.10107538890452    3.23827514227307   11.80566259771832
H         6.06030473051488    1.93852876730309   12.36910527679733

