54
CSD_code = QUGHUV | q = 0 | S = 0 | Stoichiometry = C27H16BrN6O3Re | MND = 6
Re        1.20071004845894    6.89965832531743    2.39270058979353
Br        1.13766767907124    8.93711815091064    3.94470056424234
O         1.06457196658496    4.46011863107072    0.50683834646874
O         2.58979017387008    5.47620424036110    4.76814525430233
O         3.97187383701339    7.81307461897091    1.37213175088832
N        -0.91977952085370    6.72274965651929    3.07653440447668
N        -3.23290867338534    7.49199597685645    4.32889441924650
N         0.06979636895275    8.08004452937939    0.99025139093196
N        -2.54936941485664   10.48213684610265    2.56126732497039
N        -3.03818711661259    4.18190917062781    5.52319759502760
N        -0.32542420232464    5.09127768469907    6.02363528114542
C        -1.65485241690403    7.74166126232520    2.58793947886988
C        -2.73650062359606    8.23209869983965    3.34748279348108
C        -2.64127983692023    6.36057056102612    4.66064584045372
C        -1.37964504591756    6.03774003159731    4.11708974992481
C        -1.22189542425799    8.27836317757939    1.30298380131565
C        -2.10939125840417    8.88276763597964    0.41180782145910
C        -1.62868991037848    9.38387609842579   -0.77914082637346
C        -0.27237895555044    9.25645107798374   -1.05507696362101
C         0.52806214960322    8.58082890721262   -0.15675078857958
C        -3.28273745813709    9.58741198696035    3.21894085179049
C        -4.48626707769076    9.91802263839310    3.84222141263242
C        -4.92392552023798   11.22906322745678    3.77549300055718
C        -4.14987676891400   12.16093657201182    3.10173449787419
C        -2.96894232684006   11.72824822739223    2.51166577584112
C        -3.29055840931652    5.48379713025908    5.63526866863355
C        -4.12758886698198    6.00963715312940    6.61769192218271
C        -4.69766161400295    5.13845761684457    7.52874686889356
C        -4.42064556815867    3.78409386263830    7.42321022881907
C        -3.58768295795803    3.36203370973918    6.39567873872575
C        -0.56670778128235    4.97043700239224    4.72262034565901
C        -0.10373794163718    3.89977534827564    3.95871029879182
C         0.65110434096795    2.92662972680510    4.59044256604662
C         0.92551560244994    3.06432493197459    5.94118942051523
C         0.40840614160006    4.16614017390053    6.60823788050324
C         1.11378531738918    5.36521044562652    1.21423315962591
C         2.05987248183668    5.93612809058218    3.86350063167504
C         2.96007380844741    7.42482425045165    1.74343270804191
H        -3.15747296699179    8.93770696079883    0.65533026323358
H        -2.29322604910678    9.86259498584044   -1.48160935373601
H         0.15358158530970    9.65392862883158   -1.96192124507749
H         1.57971829523648    8.42639402824228   -0.36176065799088
H        -5.04386750700644    9.15464232029743    4.35998818947856
H        -5.85207657544388   11.52055349838264    4.24550952461346
H        -4.45067389797130   13.19448674604884    3.03444932693580
H        -2.32496656521390   12.41108774819727    1.97351456598935
H        -4.29783357590335    7.07318628122886    6.65844335444527
H        -5.34472970885841    5.50859765577800    8.31078186604979
H        -4.84098835800967    3.07205728854206    8.11598209191005
H        -3.34968724230442    2.31495464550210    6.25977500474492
H        -0.35457619938430    3.82326828428008    2.91215516961041
H         1.02308915893746    2.07959880556309    4.03325584571260
H         1.52328587616930    2.33650421745489    6.46660873834378
H         0.59022850541915    4.32152052738928    7.66340051050308

