77
CSD_code = QUGHOQ | q = 1 | S = 0 | Stoichiometry = C30H42NO2RuSi(1+) | MND = 10
Ru       13.55031046013915    6.24376775741862   14.83419636449202
Si       15.84177689899822    8.01781433915767   17.12780845104007
N        15.55383614583242    5.81306818419310   14.27717156119845
O        14.13471915028653    4.90092705074221   16.29689640636939
O        15.63974534325057    3.35659085276359   16.80028852642587
C        14.06404231995723    8.35881072635205   14.82461981655768
H        14.95342389841162    8.76923488326329   14.36119783486533
H        13.16016330937872    8.91672344810176   14.57062331569049
C        14.19401832366690    7.86036595712277   16.14875917644466
C        12.96194729681219    7.43614818651213   16.68590169910282
H        12.07115761725742    7.96283307559123   16.33989678587687
C        12.81907341678024    6.82460425820638   18.03663998762893
H        11.77389911491766    6.68186570611687   18.29728780255983
H        13.28138926559716    7.46856515512957   18.78406530174456
H        13.32376327562762    5.86053641428599   18.08417368171526
C        11.35511044346885    6.44083074872578   14.23690309456745
C        11.62264751145528    5.16499436534740   14.82029526115668
C        12.56556560944937    4.48564389522820   13.97398092806786
C        12.85481521174091    5.33481388812686   12.85539124640525
C        12.13276742231198    6.55335827178500   13.02979720945450
C        10.23333870178320    7.36405956420211   14.58773723342364
H        10.49708117825624    8.40818412910522   14.42709295522178
H         9.90523115298155    7.23479431182382   15.61600196533953
H         9.38639915126499    7.13733458438403   13.93665856506701
C        10.93872354563293    4.53230986891177   15.98235081778655
H        10.32620282358974    5.24614547743729   16.52582230181225
H        11.67142204313667    4.10509169970308   16.66663429648989
H        10.29832764046606    3.72251844594209   15.63031858232451
C        12.94190138677165    3.04589779461858   14.09768287796935
H        13.07059638991883    2.75977809599322   15.14050714728958
H        13.86148247757471    2.82216497576008   13.55921967912370
H        12.14452520309836    2.42998903737336   13.67763357601327
C        13.57681798272312    4.88735740068080   11.62648894373391
H        13.87056711115218    5.72074492696536   10.99454739175765
H        12.90934405489554    4.24206915842898   11.05189835705891
H        14.46608453543539    4.30774358729768   11.86975153910531
C        11.91898116552363    7.61447788198643   11.99677962208638
H        11.89966545667216    8.61115868198165   12.43402211883801
H        10.95181311705630    7.44582324109968   11.51972550155446
H        12.68193435954193    7.58785583443380   11.22340363877836
C        15.25090586433048    4.29897660642469   16.14683125364581
C        16.10685396749252    4.87608237365705   15.02806145965667
C        17.40832996786877    4.38914651768226   14.84264440316981
H        17.75205743521506    3.61827393226970   15.51471242800861
C        18.17315924132069    4.91352888892537   13.83996689614641
H        19.18954415613451    4.58969418218400   13.67625556531806
C        17.60996713614760    5.89036072260422   12.99348781950232
C        18.33223542515898    6.44923348885641   11.91902269693933
H        19.34868387941081    6.12250530518889   11.76235973887452
C        17.75818382357848    7.37515585345592   11.09370436712566
H        18.31647466342511    7.79933573562321   10.27442688586146
C        16.42966136629561    7.76989866060894   11.30687157808496
H        15.97836371183640    8.49014525129726   10.64169030471238
C        15.70206245898225    7.25258003227920   12.34488507685289
H        14.67899188498829    7.55665462737775   12.49793418246479
C        16.26781951121484    6.31428965836647   13.23026998837004
C        16.42891401768074    6.47821500158849   18.10103412106113
H        15.60127042281836    5.81623050918532   18.35040385007149
H        17.10545802321916    5.89170561896482   17.47591253053415
C        17.15904427307213    6.83249142229778   19.39645469552024
H        17.51260817220024    5.92654946590126   19.88264314748709
H        16.49910672829168    7.35100110676018   20.08550583733860
H        18.01541669500066    7.47098161025008   19.20150889187659
C        17.19325455619355    8.56993841440059   15.87645480567101
H        17.23462689747221    7.89844772151972   15.01671884462657
H        16.94954182328385    9.55870745124285   15.48399027593257
C        18.58602620628109    8.63756726111983   16.49833283227522
H        19.31403385462102    8.98370437416352   15.76766215292685
H        18.90036925718618    7.65993846042915   16.85239588122862
H        18.59767890434749    9.32609753502278   17.33805924998763
C        15.46135589018575    9.48132800362204   18.31211263708158
H        14.88739379913895    9.14468781616310   19.17626893782065
H        16.40913045771493    9.84281847537453   18.70947993839994
C        14.72465752871894   10.65306737711720   17.66501610861846
H        14.58650419262083   11.45538494734901   18.38572375414085
H        13.74483566864978   10.34649995869052   17.30653274960394
H        15.28796662510444   11.04877976978073   16.82429255096110

