81
CSD_code = QUGJUY | q = 0 | S = 0 | Stoichiometry = C28H49OSi2Y | MND = 12
Y        11.25530741354254    8.49917825595166    3.37075590636524
Si       12.74533781902520    5.76321276290729    4.43891122909694
Si        9.84939326338112   11.77786545904544    2.87784829264113
O         9.12386969291305    7.13624290851493    2.63434685652318
C        12.89807435619301    6.94938146837790    2.94388337835270
H        12.78422093757712    6.40730599054942    1.99733702378464
H        13.89448831806455    7.40790824295139    2.91579966108089
C        11.41166146284317    6.61923463063276    5.47808233065190
C        11.49557280142102    8.06309543022738    5.75015943081279
C        10.23976205111866    8.44078651049032    6.32960010149664
C         9.41074517818700    7.31953399825046    6.35298167298654
C        10.13218016923611    6.21265082313321    5.84038742302346
C        12.79911460783619    8.73072842786715    6.16761943987712
H        12.68649522646684    9.81290104401510    6.25834057395108
H        13.61832389519801    8.51782999379650    5.47721916864121
H        13.09046678328432    8.35172331934136    7.15147818523311
C         9.94738803884247    9.76967320333950    6.96388265813690
H         8.87936568414736    9.98064492245029    6.96200408031023
H        10.45643632587243   10.58292604911934    6.44481877656302
H        10.28167275268834    9.77211341501568    8.00403204937677
C         8.00405122277758    7.28631701018873    6.86569568304847
H         7.44485648284227    6.46208331474439    6.42726019531273
H         7.48147818437833    8.21426160348108    6.63296333922983
H         7.98990129952685    7.16340972259914    7.95061655369854
C         9.59505310823544    4.81793072799485    5.75511314518031
H         8.90209439597342    4.62587141388776    6.57263600105215
H        10.40751182293322    4.10104730158540    5.81970936205054
H         9.06434428172053    4.63813176860258    4.81618113770563
C        12.26797105110560    4.01486672906175    3.81535141339491
H        11.29108401516461    4.00125344042489    3.34528764990739
H        12.26299802576722    3.28890519158721    4.62005007105732
H        12.99144407302126    3.67837200899642    3.08000651221722
C        14.37585688081401    5.51185621857913    5.41770743469593
H        15.08083400818178    4.92194397577106    4.84070862747460
H        14.19593275542477    4.99001390965975    6.35214319287697
H        14.85575193200712    6.45425277589001    5.65738947287258
C        11.16659498960472   10.60020898782984    2.20772607045571
C        12.60496387315269   10.87827189427802    2.27484862194190
C        13.20140764427622   10.43697665197365    1.11334786551028
C        12.20038331595992    9.89500492713748    0.25645253315360
C        10.97679023897611    9.98987099258601    0.88507256438128
C        13.30903946672146   11.53773923397519    3.42803781008173
H        14.26659224586120   11.05364863566968    3.62580392334209
H        12.70906516439251   11.49066070057124    4.33604990218356
H        13.51088345129079   12.58837342077124    3.20883110027849
C        14.65401134875944   10.48758966016689    0.75866626013989
H        15.04678006643824    9.48233889562156    0.59713883031981
H        15.23415541827533   10.96326470756131    1.54502301944997
H        14.80153295485593   11.05163812965506   -0.16290975365952
C        12.48983489891176    9.32222975837109   -1.09535909780381
H        12.97046995654820   10.06842236652256   -1.72866715974199
H        11.57823820808343    8.99447299652211   -1.58922484146796
H        13.16829764345354    8.47080314706762   -1.01698012573456
C         9.64734337159647    9.63225950736198    0.27946822335678
H         9.33333772764738   10.40051240226853   -0.43053252209322
H         8.87548619704335    9.54134307509156    1.04235853788002
H         9.70659015393989    8.68988175805058   -0.26761231592029
C         9.12273912536161   12.89812805606144    1.50485905218020
H         9.91615874965345   13.35343906265476    0.92116093582726
H         8.52107181687596   13.69763178006245    1.92618813370105
H         8.49277502259518   12.34185456314539    0.81950105504596
C        10.42552209565525   12.97512316188741    4.25467644808838
H        10.74734502739474   12.46134392704565    5.15470187313191
H         9.60422551421613   13.62769036867698    4.53449231303265
H        11.24146967877748   13.60451346369975    3.91977519960845
C         8.38695731799329   10.78233032466195    3.65045390822627
H         7.71776046311084   10.39535294935406    2.88655888998483
H         7.79037872385453   11.41669613371938    4.29949672538792
H         8.74197886841625    9.94007875963708    4.25214254423095
C         7.78098010978919    7.02630449594745    3.10216569031668
H         7.70246103156367    6.17311124114371    3.78683243955581
H         7.52815644126232    7.93975698847992    3.63898403329354
C         6.93938961087981    6.79177035451207    1.84389512928733
H         6.05118799461226    6.20340047791785    2.06066475381082
H         6.62631612688897    7.74274049413533    1.41459192917434
C         7.91348107835975    6.06605089284122    0.89980626876987
H         7.98962993188732    6.58567979853176   -0.05341211387412
H         7.60660545967577    5.04063375684044    0.70547359370776
C         9.25205152493745    6.10442317397608    1.65660577345377
H         9.43773379325347    5.14815695696686    2.16406804487862
H        10.10778583948133    6.34572300002217    1.02156990246038

