58
CSD_code = QUGJEI | q = 0 | S = 0 | Stoichiometry = C28H28OPt | MND = 7
Pt       10.24588531896516    4.04502653516206    9.29361105342456
O         7.82835819446499    2.57531414804006    8.31145259305884
C        11.27888763638335    2.47141212302995    8.45964482695839
C        11.51750550115386    2.33549335088248    7.16296450250428
C        10.98188532751466    3.23271084325969    6.11986714533582
C        11.63995903537667    3.33998468099740    4.76730122895558
C        10.50462156694844    2.66729009974244    4.80297815822404
C         8.70583297565283    3.21020086633038    8.70724422720518
C        12.78124451785987    3.86296949527642    4.10369166947381
C        13.83106187585802    4.40738688872328    4.85050770219459
C        14.94665735771969    4.91759297507804    4.21877322377715
C        15.03443323256669    4.89704018069498    2.83522056248141
C        13.99894119370211    4.36009204061678    2.08475028266354
C        12.88070025941202    3.84543927981608    2.70805731985056
C         9.47416109631390    1.87904445057827    4.22754369148118
C         9.46783120368744    1.58017953699663    2.86044340255533
C         8.45605064044517    0.81156392600000    2.32263717926434
C         7.43843316828138    0.32967445575028    3.13262989265960
C         7.43779836429418    0.61807481301741    4.48888904365293
C         8.44530363890835    1.38561566406112    5.03708167371745
C        10.56371693543338    6.41097305947256    9.36344940495546
C        11.79999056929335    5.75625570614546    9.21309238320420
C        11.98292650306182    4.87713698124288   10.35835724298154
C        10.88718774568501    5.07874599775044   11.24877789644361
C         9.95351209304795    5.92711131514218   10.58236345179133
C        10.05995712682870    7.56189142965864    8.54733025261861
C        12.87830093951831    6.11425029764504    8.23489458839571
C        13.30408180453420    4.26803972016099   10.73705070313748
C        10.80143632665682    4.62533499028832   12.67552484535970
C         8.74809750921966    6.55134410673749   11.22032933062899
H        11.69929176526224    1.74239353996267    9.15478253792367
H        12.13311797093829    1.52112645706130    6.78972084401025
H        10.46579812599946    4.11042346326815    6.53060042562966
H        13.75537382948910    4.41117792184370    5.92714377991049
H        15.75384007378630    5.33460911224812    4.80375005301309
H        15.90752075316363    5.29815061173545    2.34210322690303
H        14.06805938692126    4.34489515702147    1.00658007540989
H        12.07053219378477    3.43276480979574    2.12600688802290
H        10.26313748574050    1.95397249383377    2.23308889330338
H         8.45660480969514    0.58464068297125    1.26617541254162
H         6.64828648220393   -0.27063226837909    2.70618465009399
H         6.64682154928276    0.24118080673971    5.12039987035910
H         8.45451387470903    1.61195711773208    6.09244096437802
H        10.36798648134593    8.50231780159772    9.01064230913254
H        10.46422978253112    7.53374173531283    7.53771035586852
H         8.97360092039778    7.56029577066628    8.48300224650985
H        13.57556101034374    5.28953374017212    8.10829900907339
H        12.46656075943840    6.37252158262696    7.26100134974642
H        13.43773531973566    6.97600014666046    8.60674715760105
H        13.17724172836450    3.48432568654796   11.48086470489310
H        13.80433861489064    3.83628209040545    9.87219482355983
H        13.95462238868948    5.03718268569123   11.15929173874845
H         9.76962634353115    4.46093803607934   12.97992158800128
H        11.35499662880176    3.70215859648939   12.83353098324863
H        11.22754172932633    5.39168252562094   13.32793970388092
H         9.04436967843406    7.45722459596568   11.75435069255385
H         8.00421435618536    6.82766761082861   10.47558960143300
H         8.28251629820130    5.87507753104830   11.93437663529585

