52
CSD_code = QUGJAD | q = 0 | S = 0 | Stoichiometry = C27H14ClN6O3Re | MND = 6
Re        6.90604671043929    1.53722275489479   12.17776409671574
Cl        5.30672684548654    0.00491476586157   13.02209623173822
O         8.96367024858248    3.60944713003803   11.15518332937845
O         4.70390476055572    2.64516084122247   10.31853501976520
O         7.79615894704068   -0.61388385115344   10.14969878668958
N        10.56408011619413    3.04666278120171   13.71031502582437
N         8.84666320433416    5.11167800694916   14.15380811862894
N         8.21995924423609    0.66134273664465   13.78589331797983
N         6.19571598131158    2.86990105389248   13.88461724002775
N        12.45402976237450    5.55809609699453   12.03723333583052
N        11.77827072352200    6.96156181052962   14.34716626489948
C         9.32958061379640    2.80423773311735   14.11981960673752
C         8.40624815563147    3.86028019888163   14.22788740101721
C        10.94277924964768    4.28462269727670   13.44141384884679
C        10.09772443452854    5.35808615198958   13.81029177986442
C         9.07612081853370    1.39689319499791   14.50212744406339
C         9.81411294273174    0.87189191309548   15.55710492879126
C         9.66182991298114   -0.46140085663008   15.89220491777129
C         8.79249328524333   -1.22789063328942   15.13498865856799
C         8.10312222031945   -0.62916755793156   14.09545800492498
C         6.97783352766469    3.72543190356645   14.55609859738838
C         6.48241497739364    4.55532898425822   15.56047348007163
C         5.14405367692526    4.49365683686090   15.89788267536045
C         4.33891057428507    3.60569593829363   15.20442061001479
C         4.90423997215454    2.82904190899228   14.20883665520388
C        12.21810922381928    4.46641090900495   12.77548260504585
C        13.28161739830772    3.59935256896686   12.76080177981431
C        14.38207807939878    3.80938854001204   12.14065245295651
C        14.68778428392031    4.88713948307904   11.38156792570282
C        13.56760918435362    5.76564242965917   11.39791175566308
C        10.55589138936345    6.74946042855381   13.86753071073160
C         9.71616974732996    7.78088830207096   13.45152026772059
C        10.19000317636162    9.07936354130349   13.51606616810894
C        11.46988365608452    9.30058552038498   14.00040801361892
C        12.21597357634834    8.20288511433425   14.40793955251557
C         8.22260957710646    2.83517047867132   11.57989450944587
C         5.55857722703468    2.25242076708731   10.97231102552325
C         7.48337200052516    0.21956000594644   10.86975212539911
H        10.49695921974521    1.51322794085153   16.09167376863836
H        10.21792148476310   -0.89124080654409   16.71141074572264
H         8.64878196556553   -2.27736438690827   15.33562929507755
H         7.41608340846302   -1.21143798715954   13.49634299589847
H         7.16062741110584    5.23476927988089   16.05116848164243
H         4.74075578878090    5.12543476890393   16.67470326397500
H         3.28569326175380    3.51654866008452   15.41643341206740
H         4.28960090525417    2.13031368132867   13.65680030262982
H        15.59048688319408    5.10486512378936   10.83664891545908
H        13.62199963270715    6.68735121832963   10.83841925999192
H         8.73027349197379    7.55003320245755   13.08163228764033
H         9.57145819614604    9.90531333670056   13.19568823823256
H        11.87785853177003   10.29712624376016   14.06661974965438
H        13.21453039291887    8.32187909490699   14.80847101501111

