58
CSD_code = QUGMUC | q = 1 | S = 0 | Stoichiometry = C23H29N3OPRu(1+) | MND = 6
Ru        6.99117958801610    9.17743153599892    8.96043033675592
P         8.05625709589124    9.42647153496105   10.99751072898416
N         8.25767247934293    7.50396247309175    8.31655966264560
H         9.24464343889940    7.50176171412832    8.58398928577851
H         7.83176252850190    6.72486765317157    8.82778199059733
N         6.21944182837966    8.85323242740198    6.97960807081608
N         8.28042848749610   10.58903109110155    7.81095437777780
H         8.01663405075938   11.50994998418068    8.16261396229890
H         9.28610789753150   10.51783828654690    7.95879885010993
O         4.90692230169056   11.22894998771092    9.55544791771968
C         8.12453357016224    7.25437864563552    6.87593956896862
H         8.34942486306028    6.21039910865408    6.62096939644686
H         8.84120389425400    7.88054822313149    6.33827237336677
C         6.68812810658664    7.56676635675108    6.44090523622596
H         6.61955394668928    7.54771857732260    5.34558901069161
H         6.03469409713694    6.78569894171299    6.84254021992361
C         6.53445001176963   10.03532265034002    6.16334226796161
H         5.85274082920327   10.83691784306361    6.46902417903989
H         6.37276908794955    9.83389356173586    5.09575669552819
C         7.97639637915750   10.51344526282980    6.37319972453076
H         8.67451153852763    9.82575722612424    5.89051972525641
H         8.09315395720438   11.48786703815264    5.88363310927224
C         5.74181716944239   10.46083718695763    9.36479065280236
C         9.01991345033664   10.96611554777827   11.21760473365748
C         8.37338965685102   12.14735057426233   10.85797345032687
H         7.36763787600355   12.09174147913544   10.45596719780926
C         8.98975978725213   13.37046180119615   11.04291266316346
H         8.47841354018394   14.28101936860297   10.76884142694132
C        10.26235604829953   13.42497126049585   11.59036785257017
H        10.74724695406479   14.37779289951992   11.73590304655043
C        10.90528716025337   12.25610802989685   11.96190525793243
H        11.89022941256948   12.29829084669823   12.40185974970075
C        10.28912062206046   11.02895570504904   11.78273488133291
H        10.79780189550415   10.12594366422151   12.08869097712100
C         7.09479749166919    9.45512453822710   12.53971723702405
C         7.74587344193207    9.67921362784267   13.75213269859352
H         8.81799510866152    9.81909274402029   13.77192310882641
C         7.01802378845128    9.72002817481112   14.92559138494383
H         7.52255264333882    9.89134453161529   15.86445738593638
C         5.64238291825623    9.54513465035438   14.89732403663191
H         5.07733258214017    9.58179776569966   15.81607892176100
C         4.99419740037544    9.32468088274426   13.69342137429332
H         3.92378362453427    9.18848532594267   13.67240724838839
C         5.71683663544304    9.27923127345746   12.51341630601101
H         5.22697507350049    9.09958360623224   11.56552253993496
C         9.27475661677438    8.10271405611948   11.28547015457858
C         8.98963791522291    7.03568157720773   12.13063842883698
H         8.06306799087306    7.03049488747775   12.68654788573392
C         9.89323273264861    5.99460408982146   12.26093859000051
H         9.67294412109450    5.17478111715361   12.92725638287446
C        11.07812877327169    6.00304167424519   11.54287614223219
H        11.78309616215129    5.19359771671141   11.65163849591535
C        11.36092277807094    7.05390162133356   10.68323761572737
H        12.28508537957291    7.06200699055269   10.12390579512366
C        10.46000949582990    8.09462278338776   10.54785507523327
H        10.68455939906402    8.92725320282496    9.88884526007683
H         6.06445270374109    8.10445442329723    9.54676304994950
H         5.20107167235478    8.79513025134696    7.03959630076373

