100
CSD_code = QUGNIQ | q = 0 | S = 0 | Stoichiometry = C49H42ClCuN4P2S | MND = 4
C         0.91049799889173   -0.47812373971920    3.36139013075625
C         0.37964491110389   -0.15480234701364    2.11355133496529
H        -0.50468839851431    0.46848960544867    2.06414949645780
C         0.98259005378755   -0.61811630524800    0.96141281987524
H         0.56933994796962   -0.36495093633108   -0.00445763623466
C         2.12486219776163   -1.39953437716651    1.04580369959454
H         2.60154882755884   -1.75882393478149    0.14530199710094
C         2.66107036626497   -1.71208275972542    2.28354491409410
H         3.55522991133944   -2.31555108476859    2.34778711699912
C         2.06136116378792   -1.25204218766773    3.44299943447321
H         2.48792372371096   -1.49119703986408    4.40707367339305
C         0.99697249242069   -0.39713360535713    6.20222802945426
C         2.19603323932419    0.24946993176960    6.49707347268595
H         2.51248423166164    1.08227822180348    5.88439929356796
C         2.97016678438521   -0.17194457260696    7.56000136151162
H         3.90070231092688    0.32988307946726    7.78096894399036
C         2.54849604816684   -1.23491787490075    8.34298711704279
H         3.15307289348701   -1.56740203978698    9.17438791178588
C         1.34838656102475   -1.86764398437793    8.06444830886099
H         1.01744955282551   -2.69298843193457    8.67925946433903
C         0.56814540294162   -1.45122877445281    7.00033383783888
H        -0.36974852089267   -1.94571340769051    6.78847170830052
C        -1.48994144544884   -0.69642858862191    4.84543381936936
C        -1.62802286098718   -1.98068965143554    4.33021057454013
H        -0.78364245108718   -2.46527635416828    3.85923173955565
C        -2.84561741497493   -2.62989005699754    4.42437849127491
H        -2.95307638858983   -3.62876417928453    4.02618494848845
C        -3.92691334094675   -2.00613357568143    5.02736172345340
H        -4.87446178908871   -2.52030697167357    5.09676952743263
C        -3.79574350118070   -0.72282968597347    5.53306954950150
H        -4.63844490956874   -0.22900590065972    5.99521098025220
C        -2.58165885778982   -0.06976259241011    5.43700682521457
H        -2.46775641864583    0.94207532184579    5.80807323804498
C         0.06069919411701    2.97979370792703    7.87668354468815
C        -0.31932735106198    1.74602301121327    8.40385507962500
H        -1.19436023990476    1.24285785837690    8.01158099838101
C         0.41064208196034    1.17291514772380    9.42568786621933
H         0.10147456625084    0.22509779500472    9.84136360247626
C         1.54580146266378    1.80620662031721    9.90651079350082
H         2.12009652679867    1.35303932335228   10.70102413149902
C         1.94753089083874    3.01384510487493    9.36122483366056
H         2.84003841132587    3.50139360783929    9.72593453429109
C         1.21059044779188    3.60239594453313    8.34941677965201
H         1.52595705170422    4.54357311447792    7.92159751556389
C        -2.59477157252992    3.51006729596833    6.99272910332870
C        -2.99447740191744    3.50388140943622    8.32548757245959
H        -2.25475298695273    3.56762576132729    9.11193439323423
C        -4.33811538488368    3.41042995173140    8.63979772909815
H        -4.64709215757165    3.40744453204157    9.67539068251413
C        -5.28722624755779    3.32149895372561    7.63358459690606
H        -6.33463561248390    3.24548251258892    7.88735450175238
C        -4.89315945771205    3.32759111620387    6.30548423445684
H        -5.63066637194320    3.25458571015137    5.51972568081597
C        -3.55124896418558    3.42088963517319    5.98476248659327
H        -3.22939056364164    3.41557364932104    4.95102855176138
C        -0.53845536159813    5.41857989504152    6.53113789954744
C        -1.29870540139275    6.30508162477516    7.28584160201767
H        -2.13259103966417    5.94480569276934    7.87157866228853
C        -0.98573383162299    7.65239602330268    7.28023343952753
H        -1.57591156158943    8.34139336448938    7.86752163227974
C         0.07763421694256    8.12107079414156    6.52532043753280
H         0.31537488009316    9.17498822310213    6.52638366446651
C         0.83082486172950    7.24061418225567    5.76557812704868
H         1.65685574543225    7.60466328657192    5.17240564730208
C         0.52142609297601    5.89305705995880    5.76148365350332
H         1.09757540157616    5.19677532889851    5.16507570137019
C        -0.56657887616429    3.77705061702847    1.61683563003198
C        -1.02607096079441    5.41932274023777   -1.47222788098333
C        -2.45597668158807    5.37506672611739   -1.80687192025014
C        -2.89631428568223    5.50514356394094   -3.12975015757708
H        -2.18377231186636    5.64299040114935   -3.92776537677653
C        -4.25034061270136    5.43334060867440   -3.39543721372008
H        -4.61273381869981    5.53564236123762   -4.40827557160995
C        -5.13602367750083    5.22263444952201   -2.34778773559501
H        -6.19986574850773    5.16697606864540   -2.51517547855754
C        -4.60894440705914    5.06759081137290   -1.07607118234023
H        -5.24343591453365    4.87470678003999   -0.22075709802868
C        -0.08608501281872    6.06616692538353   -2.40206292697359
C        -0.40093628217765    7.27830349244898   -3.01349616923449
H        -1.35002121743916    7.75231007099568   -2.80678773747138
C         0.50505267808084    7.89012005537502   -3.85986225029141
H         0.25138065018922    8.83112792446995   -4.32574191748394
C         1.73534879255586    7.30363657704755   -4.10665432429108
H         2.43888899888713    7.78192018050535   -4.77171918779728
C         2.06210790211837    6.10603843492086   -3.49152090257772
H         3.02312333189903    5.64899388625285   -3.67590959944165
C         1.16105933474494    5.49324005680237   -2.64187865312132
H         1.40621751027755    4.55911398525398   -2.16045814840199
N         0.74940089739867    3.82839855294680    1.66772122512858
H         1.22241383493048    4.33515102496770    0.93385722300641
H         1.27571585204454    3.52478189380282    2.50883607711205
N        -1.19342605320357    4.32224895824891    0.53965671084960
H        -2.21792796988273    4.31346725673812    0.48328258608218
N        -0.48407574234944    4.91039254702870   -0.41983021532644
N        -3.31864478714602    5.13877995997561   -0.81171883890714
P         0.05969625467501    0.25888521905027    4.78900733820872
P        -0.85792740331791    3.62658469418264    6.45098652783249
S        -1.55556099297129    3.05548572195065    2.76221466756094
Cl        2.11073153014967    3.03398047733569    4.20255074720218
Cu       -0.11933745556595    2.51455853724493    4.63984422656974

