57
CSD_code = QUGNAJ | q = 0 | S = 0 | Stoichiometry = C21H30ClN2OPRu | MND = 6
Ru       23.02291573043736    9.17825058852126    4.79210833553931
P        22.13786882567223    8.45364600327544    6.73803999329079
Cl       20.91825261780919    8.72217400734084    3.71359438087905
N        21.98074942778036   10.93866030812262    5.29994204260090
N        23.66195096528487   10.41294877465758    3.04234600353449
O        24.27108004512753    6.58408071090397    3.98964462452282
C        23.81690354237243    7.60356369030055    4.29487403264392
C        21.06294580895461    9.88039594551109    7.25895414258536
H        20.09082009299174    9.72363736084374    6.77577997933932
H        20.90845246574729    9.92632392238995    8.33841732166843
C        21.71503468395595   11.15129044493336    6.71753012083242
H        21.06070692429408   12.02550920683250    6.87460278769153
H        22.67065115817076   11.32838812557865    7.22651424546281
C        22.57657511380986   12.04995340284827    4.57857588626189
H        23.53107525566170   12.30930421250395    5.05088184292889
H        21.93126000682273   12.94456892345735    4.59128142253528
C        22.78099119484560   11.59256529053537    3.13142134530058
H        21.80088266927959   11.31431477328290    2.72582430886103
H        23.17922459566338   12.42744828395313    2.53702961628250
C        25.06553135558945   10.87037642475881    3.07854431142085
H        25.21947349260527   11.38406436414175    4.02958962898153
H        25.23421783114129   11.59620933631190    2.26994014499135
C        26.09424566536601    9.75288894985848    2.98084840997975
H        25.86691445933702    8.98323390835775    3.71771508611917
H        27.07891998432375   10.15983131705839    3.19807820914728
H        26.12313196156184    9.30724209810220    1.99056023307981
C        23.38139334519239    9.66466237684046    1.79828678907379
H        22.33124273616455    9.35999432876521    1.83089691330668
H        23.98553419603438    8.75424761704109    1.81712351257696
C        23.63194940513397   10.41163406684679    0.48808907719576
H        23.05482635259073   11.33163564014691    0.43048791524147
H        23.31909457797241    9.77123967134239   -0.33286671125510
H        24.68381706894847   10.64590646023521    0.34371334215631
C        21.01657781668071    7.03101323254687    6.93112522661400
C        20.93623609309796    6.09207219558611    5.91140297353827
H        21.52079474724996    6.23792525798695    5.01262821222248
C        20.10489153800371    4.99379302209654    6.04509397058606
H        20.03810207778432    4.26825177158468    5.24784344472220
C        19.35867302657552    4.82858120690810    7.19936160098341
H        18.70694496251474    3.97332800652442    7.30392796226184
C        19.44841460355688    5.75672630627944    8.22570491135704
H        18.87050557969534    5.62105418387233    9.12876318629568
C        20.27753150671022    6.85449293162159    8.09709823156639
H        20.35969944556276    7.57307068733601    8.90128701585189
C        23.24859086249720    8.13420347377304    8.14597662622558
C        24.05586253459474    7.00934409065659    7.98743453158655
H        23.96797816626193    6.43630123667579    7.07156488802532
C        24.95521429558337    6.64845332211551    8.97005699342233
H        25.57613100177571    5.77406808355322    8.84254763651959
C        25.06400964588500    7.41600592713073   10.12025067918750
H        25.76659809553410    7.13821236709009   10.89216513514374
C        24.27913471774115    8.54486979953982   10.27408099933037
H        24.37177390662685    9.14961149435793   11.16511320462947
C        23.37363905251492    8.90821211404695    9.29045181702480
H        22.77740481246347    9.79930046103403    9.42619235678760
H        24.25938344074755    9.65288487513056    5.56196515798894
H        21.07987451373385   10.71623341695026    4.84699394339559

