53
CSD_code = QUGNAI | q = 0 | S = 0 | Stoichiometry = C20H31NiP | MND = 7
Ni        1.56134307133924    1.20886030478972    9.20659970852902
P         2.77105685759158   -0.48824845458490    9.80962842066131
C         1.29880958360500    0.19290490262238    7.41956893601212
C         1.59639869080800    1.54632417662116    7.16315501985183
H         2.44142912891697    1.91091418442243    6.59593104688849
C         0.61758946797038    2.34290508434078    7.79336721555093
H         0.51895544721730    3.41373651957509    7.69116057586581
C        -0.46537728404050    1.46547336928964    8.20219019118736
C        -1.74994720098656    1.71760756682347    8.68059317580048
H        -2.07171301129496    2.73076947402123    8.87781506424122
C        -2.60485233348360    0.65232553534716    8.87731316854676
H        -3.60895007299700    0.83171098220199    9.23429032263111
C        -2.20580578794898   -0.65624309849018    8.60440423660315
H        -2.90907950133687   -1.46395746042985    8.75055011231541
C        -0.93572003928228   -0.93349978353193    8.14128166550692
H        -0.64781579393608   -1.95145725144866    7.91026452962345
C        -0.04917762582522    0.12288804007599    7.94045959215883
C         2.15277642549617   -1.00096023081330    7.10714000628325
H         3.04760583870407   -0.67815034449953    6.57174435788445
H         1.60916861828380   -1.69759971648237    6.45928896967630
C         2.52029743401805   -1.71569140470622    8.42077118836171
H         3.38169632014324   -2.37789261816399    8.30051689846210
H         1.66559143975469   -2.32416341671497    8.72177029109569
C         4.64436333983337   -0.22051879581140    9.84668246585531
C         5.02123163761706    0.19357001669546    8.42185971070664
H         4.34134837716151    0.97482881438764    8.07777227780693
H         4.98492184966788   -0.64847955663312    7.73516212062019
H         6.03328229733641    0.59581774682024    8.40453250814913
C         5.46659390692911   -1.43419194779406   10.26429453355105
H         5.34292446074141   -1.65314770887729   11.32136481421112
H         6.52269581070228   -1.22929537004488   10.09003054350711
H         5.19940978076570   -2.31729555897560    9.68732363084246
C         4.93147563063266    0.97134935456276   10.75968176274294
H         4.74959344519937    0.73814248111145   11.80351480070521
H         4.28938934252301    1.80494712292689   10.47391814795362
H         5.97138071411958    1.27821458576545   10.65732399208844
C         2.17154693024389   -1.47282542440334   11.31097222578711
C         2.55347461355896   -2.95161100690859   11.33040707899848
H         2.18554555538762   -3.48168036146563   10.45623205843035
H         2.10656734929192   -3.41668733619805   12.20874826049697
H         3.62817056883505   -3.09078604857482   11.39102792651292
C         2.65777054996900   -0.80139827926014   12.59418433317206
H         2.46175819172637    0.26732683026725   12.55200848908620
H         3.71987280922805   -0.96672716112696   12.75433031695804
H         2.12471523567852   -1.21280768521934   13.45045575688048
C         0.64647535883825   -1.32946093131565   11.24810240812493
H         0.22172252117711   -1.89519626931569   10.42182714853213
H         0.37730510192403   -0.27538249411282   11.11293529424093
H         0.19003780298412   -1.68727518929459   12.16927319383590
C         1.55993278793452    2.52210560023435   10.67524094149128
H         2.05728381612602    2.24008524423935   11.60718282072499
H         0.50575056305322    2.72952708549481   10.91118594655656
H         2.01817997809730    3.45869588256282   10.32781979769313

