77
CSD_code = QUGQEP | q = 0 | S = 0 | Stoichiometry = C31H33N6O4ReS2 | MND = 6
Re        0.80368898185468    1.42212903947687    5.62557163320516
O         0.46815940704215    2.78466144542389    6.49677779202117
S         3.19866159383411    1.59554193350836    5.71522538758522
C         3.39307613668414    2.98334077373083    4.66186045784776
N         2.83978327680436    3.09802187672000    3.48566875884628
C         1.75484277741643    2.56318240411944    2.96119007636797
N         0.73158439866961    2.11625501916827    3.66977620707303
N        -0.43909376958703    1.90013291844111    3.02729989434506
C        -1.34273756918551    1.28409962624662    3.71726806496222
O        -1.19516907320533    0.89205590100132    4.94217268002784
C         1.69314720466929    2.61335857844195    1.48584732650120
C         1.13319325241604    1.57082087952606    0.75384516729993
H         0.71873763554545    0.71429290841207    1.26214043459549
C         1.11302576430980    1.62812753673801   -0.62738505806923
H         0.67809761158505    0.81489932673303   -1.18953866134165
C         1.64540183437751    2.72216755443370   -1.28908138878982
H         1.62143009947903    2.76613953251587   -2.36804761291087
C         2.20947400374986    3.75942971835887   -0.56417039270427
H         2.62571107985738    4.61389888579407   -1.07740534886429
C         2.23926779335704    3.70476737841669    0.81627749971551
H         2.66857216434999    4.51014255688779    1.39121654301928
N         4.28026960171550    3.91155516108623    5.02326300127139
C         4.51037057201931    5.04647096746953    4.15123253379459
H         4.48458132102207    4.68596099923692    3.12038107660112
H         5.50458062084718    5.44228588312300    4.36699854567377
C         3.45097927440992    6.12741335681420    4.34612883542064
H         3.63940355730439    6.96104388627255    3.67494382215570
H         3.46038400158981    6.49363055198143    5.36976844035393
H         2.46614260448646    5.71960122965210    4.13584921102797
C         4.97799946181945    3.87015423780510    6.28868054631145
H         4.32512539923189    3.40807927614410    7.03291167289009
H         5.18422014340717    4.89902922285186    6.59154820009149
C         6.27714710359003    3.07565182540465    6.19011176797827
H         6.79073302468419    3.08833755090128    7.14691240674837
H         6.93310386493633    3.50051568557078    5.43367153845710
H         6.05605317863013    2.04565577624969    5.92589258443008
C        -2.59433477936919    0.94712205310219    3.01018471197251
C        -3.21468095149632   -0.27533528646111    3.24128271590837
H        -2.76886101433859   -0.97502606492567    3.93288871037363
C        -4.37643302712307   -0.60044696460512    2.56530119452719
H        -4.85419013299335   -1.55236081041904    2.74611862475992
C        -4.92272972515944    0.29058654595876    1.65704492184910
H        -5.83428106950510    0.03836091657030    1.13526008142355
C        -4.29751737103698    1.50384206645248    1.41462304020599
H        -4.72093553765600    2.19497654358259    0.70077650864693
C        -3.13403597244678    1.83319612411309    2.08349523491568
H        -2.63100806124672    2.76997654637144    1.90252916314263
S         0.86737049868024   -0.07701533402235    7.64370267408783
C        -0.44121420230499   -0.99652332575907    6.97169690807672
N        -0.27615671741553   -1.74422126077109    5.89080625069907
C         0.55178184560173   -1.48055497156920    4.90397883532611
O         1.08374030034517   -0.34764224216437    4.69555049085096
C         0.78776442051884   -2.55902197576423    3.92820367970404
C         0.24605454535579   -3.82776279153038    4.11928733074104
H        -0.34264511900637   -4.01608627091473    5.00360269927201
C         0.47248752436995   -4.81966134858077    3.18516641909099
H         0.05444227924844   -5.80441113185291    3.33331006815922
C         1.23414910939393   -4.55430233776517    2.05685945646836
H         1.40562926342018   -5.33210039101179    1.32726165880859
C         1.77636027101516   -3.29377512002635    1.86386399092281
H         2.37190133204146   -3.08784455395255    0.98668747725381
C         1.55702971208774   -2.29831708609849    2.79633134945752
H         1.98027811737260   -1.31310417322809    2.66105284622592
N        -1.58333970771711   -1.09300182201595    7.64552115723525
C        -1.87260668831052   -0.30971376535072    8.82512983115175
H        -0.94692979569806    0.08290860118533    9.24401093906105
H        -2.36472062155765   -0.96152991566989    9.55326728242227
C        -2.81668148844716    0.83395993017990    8.42896605788606
H        -3.12305819411323    1.40480295292389    9.30610892648692
H        -2.29449881301510    1.49535135413153    7.72056260083605
O        -3.99480870821847    0.32167333128106    7.84962595485165
C        -3.69662495744849   -0.41807376619456    6.68926968783897
H        -3.18802956529789    0.22455042726472    5.95755302638874
H        -4.64966331994342   -0.76036646671940    6.28281779934659
C        -2.78280828219086   -1.60900848031960    7.02204236895794
H        -3.28378238854723   -2.27587406126233    7.73083984674804
H        -2.50876134156535   -2.15807707881234    6.12181383398309

