86
CSD_code = QUGQAL | q = 0 | S = 0 | Stoichiometry = C39H35N6O3ReS2 | MND = 6
Re        3.81860250662959    9.00629944372128   11.11463361583927
O         3.61882135884152    9.08290623241056   12.75445990307685
S         5.13141553926907   11.02455325382877   10.95252990501156
C         3.80485884569893   12.09582828711763   11.38910318080658
N         2.68799234067442   12.15118813039872   10.71769091659768
C         2.01413726379635   11.22063170843647   10.07331073307065
N         2.10490481042626    9.93737312577640   10.38613443106892
N         1.14617434951451    9.08847313650930    9.95939527871665
C         1.43288969121974    7.83166953541793   10.08986946564189
O         2.55461642888295    7.39483020443207   10.57692728659874
C         1.04854653933425   11.70192937899464    9.06875949108252
C         0.82214689749196   10.97918577325241    7.90110943523404
H         1.33946226696863   10.04729068077961    7.73260767990379
C        -0.05512454905149   11.46303023188564    6.94836606727431
H        -0.22340734493198   10.89933474446852    6.04251886105480
C        -0.71480145870058   12.66361935211591    7.15276165428312
H        -1.40391346268539   13.03548033976413    6.40873725892592
C        -0.48728654607539   13.38870890269462    8.31163341165925
H        -0.99919184732396   14.32634151429555    8.47143275503353
C         0.39457619391633   12.91512925622203    9.26415384972458
H         0.57798825816585   13.46806797932259   10.17205522034661
N         4.01325840670564   12.99584717746231   12.34983493782289
C         2.90472607717883   13.84211546510145   12.74963405206941
H         2.43516767153147   14.21519027086020   11.83541390780577
H         3.30968472776642   14.68642255200948   13.31057626883083
C         1.86468321712698   13.10033684800142   13.58555597985762
H         1.01890602832824   13.75317151464540   13.78493370572484
H         2.28545076354504   12.77694583097565   14.53300339359665
H         1.51301612472446   12.22373399105952   13.04863391458115
C         5.21832154353308   12.97015837918316   13.15418230342868
H         5.32451688656596   13.94809220978753   13.62860159228743
H         6.06886103301625   12.81088815747537   12.48885676972399
C         5.18613113065448   11.86564078127724   14.20977039554196
H         6.16249934223507   11.77836075221325   14.67719655989235
H         4.93743864435068   10.91065908601308   13.74740969808176
H         4.45013080864859   12.08041905401086   14.97961381906852
C         0.46743988099557    6.84283275120378    9.58843373936575
C        -0.82002068986239    7.22762984902374    9.22165266676696
H        -1.10307284525275    8.26312131053565    9.32643731127225
C        -1.70434293829490    6.28515265900876    8.73424836516725
H        -2.70445001633184    6.58162839149672    8.45313559340971
C        -1.31412249059205    4.96045815109504    8.60290890195426
H        -2.01022236846091    4.22824764399584    8.22016847293344
C        -0.03180525945174    4.57725610163320    8.95948263571682
H         0.27934741287180    3.54831262880280    8.85130999622335
C         0.85654497158289    5.51352775715337    9.45281445353356
H         1.86113013198823    5.22932950023624    9.72662229642878
S         5.78160862840550    7.49137797472594   11.10201335233379
C         5.05000000592639    6.40389197188676    9.96823457236501
N         4.75281535474207    6.74013740561622    8.72870307182388
C         4.43098600143221    7.95185352439249    8.32165480624909
O         4.11333606191143    8.90848077947122    9.08212169645826
C         4.34711480826190    8.15414902371816    6.86416770224700
C         4.41579251600513    7.07420872101343    5.98763298447931
H         4.53310590747202    6.08047941473965    6.39054692924792
C         4.31631749995474    7.28894423857696    4.62658530793025
H         4.36883982051029    6.45259437068405    3.94506619197945
C         4.14347035907567    8.57348731172800    4.13312566620512
H         4.06469942907181    8.73564861872107    3.06803118103588
C         4.06776629057662    9.64927381850535    5.00346056391421
H         3.93030493453316   10.64938178509103    4.61959373194055
C         4.16876277294028    9.44293538422159    6.36577960865173
H         4.11759798107502   10.27341494936759    7.05555945934366
N         4.94729166947455    5.11052331391660   10.31465429548913
C         4.62693589445678    4.10895773799666    9.36862174101211
C         5.29533289970137    4.03917538523894    8.15160005211577
H         6.06930681256386    4.75664716047725    7.92924553150276
C         4.96787444852887    3.04853961183374    7.24458381332219
H         5.48981647242334    2.99702739075664    6.30037817445128
C         3.98497360349530    2.11942221884667    7.54478402014302
H         3.73185966851250    1.34917925168513    6.83201360643334
C         3.33537728879619    2.17694804893208    8.76612718007356
H         2.57575560099343    1.44949840256624    9.01114613008171
C         3.65371551109717    3.16491441950130    9.67981333136322
H         3.14979837736241    3.20985403234868   10.63437278899679
C         5.03823790610527    4.69784470647309   11.67150202815697
C         5.89098893053817    3.65115718508641   11.99681484181200
H         6.48756571532091    3.18933663383720   11.22375910904475
C         5.97238202550087    3.21669664670220   13.30745292437539
H         6.64049244806574    2.40722498257494   13.56100893730416
C         5.20572825149566    3.82117530458992   14.28926966194423
H         5.27547976438019    3.48348919238406   15.31241037137663
C         4.34786899844660    4.85759224728374   13.95807182720051
H         3.74393083594023    5.32821798992852   14.71851368212522
C         4.25374667169636    5.29589859470647   12.65051701720538
H         3.58099555601337    6.10117022381230   12.39113997616464

