34
CSD_code = QUGQUF | q = 1 | S = 0 | Stoichiometry = C8H16ClN4NiO2S2(1+) | MND = 6
H         5.69203056354767   16.55978177499072    3.64505453727278
H         4.47003423389140   16.23061802916929    2.77166672180088
H         1.87683074465491   16.49539869101844    7.95925754136246
H         3.25013817054955   17.15353234381585    8.20229172188357
Ni        3.74284353981341   16.18187172441971    5.63406217511152
Cl        4.26900192753745   18.13703618585902    5.71850223588650
S         6.58594005134101   13.32085588908880    7.29932477352119
S        -0.05168570112556   15.26542182909798    3.70465835567464
O         4.96782458836687   15.93129624554900    3.53843323182581
O         2.82373223967982   16.34936203055218    7.88045274882069
C         2.17412334696968   14.07967502897788    4.95433090610239
N         2.02017318754601   16.43107722932110    4.73623967237597
N         5.35199957789786   15.47500365308846    6.51706105855536
N         4.19085972790259   13.55751752816837    6.03586047474508
H         4.10465525972630   12.54654884153007    6.01576688104918
N         3.28370460671198   14.39191798208885    5.52908023881877
C         6.50723073829992   16.01852049386632    7.18937905319785
H         6.17415176303360   16.46682221682977    8.13238944118136
H         6.94604534669590   16.81219202638604    6.58095967167641
C         1.47641044313284   15.27909010877935    4.51633042125484
C         1.65547040907207   12.70019215950474    4.74100603572259
H         2.32562219137110   12.13766480525252    4.08966796917104
H         0.67294482094441   12.73093418526084    4.27914185261115
H         1.57759069693201   12.16882655895924    5.68993332548713
C         1.24665669037240   17.56518937769993    4.30161212612043
H         0.94711347873083   18.13700031462233    5.18717104026380
H         1.88097881855879   18.22139294238702    3.69907316512213
C         5.27829961677534   14.19084626951287    6.56080204813947
C         0.02085739133500   17.08145699985680    3.50530880476509
H         0.10563573494388   17.28869051513283    2.43948620524940
H        -0.91154071225702   17.50104057674589    3.87553781820779
C         7.51819119407014   14.88830169047950    7.44154666747741
H         7.96311967677954   14.93893883910138    8.43172587243770
H         8.30851563619745   14.86198491288796    6.69188520710645

