55
CSD_code = QUGREQ | q = 0 | S = 0 | Stoichiometry = C16H24Cl2N8S4Zn | MND = 4
Zn        5.27370544532217    6.22659189400921    4.70245117885220
Cl        6.37875660672435    8.10913354664531    4.25443060864784
S         4.52216302760265    5.96551914628426    9.24716792246108
S         1.65585654627205    7.05396009987917    1.95288619427707
Cl        6.12433395576471    4.18704912522471    4.45077399629151
S         5.85831015288315    2.40123104105639   11.10811199249232
S         1.67932507939177   10.78934041482578   -0.03795645368857
N         4.72794355349149    6.35752814130172    6.67423163665239
N         5.65969553895531    3.49754023823487    8.49050496979122
N         3.83034870654266    8.41411585440776    2.62325490763994
H         4.74671775409933    8.53871176368544    3.09323669598765
N         5.43483397321583    4.27137857809343    7.41817363801555
H         5.70537764148255    3.99425401603485    6.45619952288616
N         3.54465324219675    6.32328289479224    3.60155363280447
N         3.31066706649769    9.31810179246568    1.77941610501030
C         4.93752736650008    5.49372633960170    7.61310049375443
C         6.60174998886581    1.68960399875802    7.08408575361321
H         5.73880095666691    1.54621461739462    6.43424407840598
H         7.05781624053923    0.72897834585298    7.29779806895597
H         7.30903993628210    2.32120644299441    6.54747631600259
C         6.18374361038713    2.33752574224575    8.36475719155013
C         3.26513616717737   11.28040006371597    0.57402895631674
C         3.16168296306023    7.27646146537227    2.81711293266923
C         3.94122487775151   10.39626316674498    1.50352789345955
C         4.22733089719192    7.67215889620640    8.66200935961363
H         3.33199363353515    8.06159006965349    9.13852261070117
H         5.08673164210902    8.27367338797054    8.95702584213059
C         6.37650845991337    1.61805824383522    9.60880147355652
C         4.08974555958860    7.57174252860742    7.14037054335728
H         3.03405735386527    7.53738384425968    6.84435608489299
H         4.55243431052329    8.42807414092080    6.64611071043911
C         7.00363607731262   -0.05250240244252   11.01440658458670
H         8.06049970815745   -0.26022117145664   11.20886296887352
H         6.46993682099433   -1.00744034097053   11.04351092284319
N         6.89623231719033    0.47081648416508    9.69321941867234
N         3.73709766506694   12.37921447408181    0.16992516776168
C         2.91462785390014   13.09377112055522   -0.74887016405877
H         3.49030985081331   13.24701070190063   -1.66703157640550
H         2.70930535588766   14.08000699867490   -0.32077805485051
C         5.27714523744707   10.79991183205678    2.03967917145209
H         5.24334302380982   10.87935683727002    3.12572298612339
H         5.56357889370968   11.75509691978291    1.61332696093393
H         6.02799321541816   10.04966871554922    1.79406599830985
C         1.35202620480762    5.51925982709155    2.89822588563997
H         0.57757022452426    5.73320597572822    3.63450167627764
H         0.99846562364296    4.74998640385060    2.21721836500387
C         2.68900455627408    5.15522877281379    3.55246264142333
H         2.54189783685187    4.77995755574973    4.56757725762663
H         3.20593868816242    4.37623073328571    2.98050806206763
C         1.60245957407923   12.32237429681899   -1.03355264389416
H         1.50628708057841   12.04235822522173   -2.08070944455923
H         0.71960113022821   12.88118491080158   -0.72936390412134
C         6.42900511213733    0.94209728691012   12.05292078684462
H         7.17947933258081    1.27303710014247   12.76827276860535
H         5.57674636199032    0.53188890137074   12.59153330733189

