123
CSD_code = QUGRIU | q = 0 | S = 0 | Stoichiometry = C60H50N6P2RuS4 | MND = 6
C         1.79336453766169   18.66894626708050    7.59006096642296
C         1.24133348773200   19.06187038928698    6.37665439042570
H         0.54449350153751   19.88529021034901    6.33638726247425
C         1.58444940263349   18.40208776091708    5.20863261110724
H         1.14377467759535   18.71244596099511    4.27249601496075
C         2.47137711679322   17.34033816319126    5.23613512955157
H         2.71849903037221   16.81770889920153    4.32400936115047
C         3.03784409932653   16.95071667173020    6.43920220316672
H         3.73467642820293   16.12541237408886    6.47258375136126
C         2.70497219420308   17.61278207242214    7.60469882192709
H         3.15112078750034   17.30756060141895    8.54328821740929
C         3.00124671356493   19.53261354964814    9.86702573096582
C         3.40570966441343   19.00635645252450   11.08562214319521
H         2.69378272524478   18.48023917041991   11.70694571091452
C         4.71645330001325   19.15244198125437   11.50857115289299
H         5.02109408704311   18.73915706871199   12.45896791887405
C         5.63060268188663   19.82340263547225   10.71594010107431
H         6.65301700560688   19.93794665649544   11.04541306577231
C         5.23450866055200   20.34502947792839    9.49301960934571
H         5.94796313439698   20.86465282111940    8.86971356626901
C         3.92957468918102   20.19770948711937    9.06680961948702
H         3.61882287891703   20.59565548889585    8.10956633610735
C         0.80108086863859   21.03940674524489    8.88468733948972
C         1.47896541390487   22.14894285691382    9.37906092000086
H         2.37079089305602   22.02316946464095    9.97597221010228
C         1.01294341907505   23.42348887865224    9.11147547877424
H         1.54407972411497   24.27832028474973    9.50507802763036
C        -0.12281656359297   23.60733006000851    8.34162627658645
H        -0.47412535853039   24.60515456594307    8.12331253325555
C        -0.81638192340063   22.50718872531256    7.86637134830117
H        -1.71383987843874   22.64207156743208    7.28077840908224
C        -0.37213940856036   21.23161758053222    8.15760334786708
H        -0.94796750653162   20.37275533608651    7.83752510619950
C        -0.62648156654632   20.74550012510496   12.52709450118198
C         0.74666764320365   20.90003040445252   12.41411267667501
H         1.26630554078649   20.35019646729479   11.63942116063180
C         1.43794135855972   21.72315243405798   13.28422988225275
H         2.50900595567947   21.82969801222797   13.18919865864321
C         0.75342645456526   22.39986830674623   14.27901196314713
H         1.28735186935863   23.04069157909391   14.96552190662128
C        -0.62014935971354   22.25027880946648   14.39998318162878
H        -1.15382753501083   22.77637462041387   15.17861065246505
C        -1.31175830644652   21.42828095490337   13.53068972866751
H        -2.38242908183196   21.30807280358641   13.63000191267806
C        -2.50162492841051   20.84361511016242   10.40854927468864
C        -3.27389918008355   20.33777966696477    9.36537299358148
H        -3.19621631074764   19.28934485929186    9.10942032603305
C        -4.10663882367384   21.16642291098108    8.63828965826197
H        -4.70368396590969   20.75956622616406    7.83481261399427
C        -4.16694181617143   22.51792047080344    8.93641135716821
H        -4.81775166914996   23.16950290431536    8.37135725879599
C        -3.37672611249105   23.03364807279385    9.94929458687172
H        -3.40453333322167   24.09081537108526   10.17101165866380
C        -2.54596071079560   22.20515267953607   10.68283859281603
H        -1.92601416596979   22.62640648321963   11.45991102120455
C        -2.73865207035686   18.92741804947890   12.46705195412550
C        -4.04560867633072   18.67766882116805   12.06281107534001
H        -4.39094343512149   19.03088946633540   11.10173412423209
C        -4.91136164647812   17.98215597295373   12.88851628647489
H        -5.92423479658026   17.79422291392796   12.56183342657734
C        -4.48073695680575   17.51559267811410   14.11831093863570
H        -5.15334248060523   16.95639290689178   14.75176638597940
C        -3.18395409666686   17.77013784608992   14.53488581043611
H        -2.84028516728369   17.41227149181569   15.49524742675739
C        -2.31848104000441   18.47161427827130   13.71717589967937
H        -1.30511167689317   18.66598589982367   14.04650507075640
C        -0.27426371618388   16.49105099229241    7.99850096810042
C         2.13338500699585   15.28584761508989   10.13401610324683
H         2.15674014655267   15.99561601501304   10.96558845843131
C         3.09439802252882   14.23941624462994   10.13558901457066
C         4.50976654388486   12.30337173182553    9.55599395540131
H         4.95441712785930   11.46153049527190    9.06347467757845
C         4.84008564055534   12.84904652444732   10.75753112188407
H         5.63046472117667   12.47336465190564   11.38276753004022
C        -0.78494439825903   16.37413021366598   12.35316023275140
C        -3.49397998500235   16.19070265369392   10.24675007594911
H        -3.27131236192017   16.86239255314784    9.41372101707469
C        -4.77502938782900   15.57709566069775   10.27625718250338
C        -6.79718814900079   14.32355732506099   10.92537576889633
H        -7.50887322373890   13.70746159172229   11.43800946377126
C        -6.94649344715004   14.97432952247199    9.74016854496059
H        -7.84788682402513   14.94221997048757    9.15423918229930
C        -5.79656908838639   15.69226900934478    9.36691539215071
H        -5.71206245404410   16.27202255550218    8.46516535577922
C        -0.03818504969137   14.65493852338636    3.47226185019232
H         0.44992180436872   13.91943377111429    2.84970606151956
C         0.23968692481431   14.69808594476488    4.82284263738610
H         0.94506005847854   14.00348153657106    5.25782338891743
C        -0.38002539598362   15.64367808985339    5.64196598543283
C        -1.28924657003840   16.53698401685939    5.08297160201801
H        -1.77808697913142   17.26946805172284    5.70269952491953
C        -1.55625823241800   16.48601111008858    3.72735368337102
H        -2.25953473175436   17.18717418558665    3.30269996255607
C        -0.93647175617273   15.55174628782284    2.91591431327177
H        -1.15159989884911   15.51947600032906    1.85853014619633
C         4.03802119475134   13.95462663987854   11.09108872381648
H         4.13848685710408   14.52336532764293   11.99809050551107
C        -0.84408933962523   15.19889747017396   14.56569715595197
C         0.36554340974891   15.61164189972468   15.11745965733526
H         1.05304406227255   16.19993382486264   14.53342631942199
C         0.67972893127881   15.26618603028453   16.41910440869469
H         1.61960917623162   15.59327371545895   16.83844066134327
C        -0.19199472265685   14.50950882056018   17.18292161490631
H         0.06188575686122   14.24487487455305   18.19814044849837
C        -1.39459659037603   14.09288160274257   16.63370054167679
H        -2.08290947030412   13.50251817123689   17.22042056755513
C        -1.72055041706997   14.43223848827574   15.33666932415468
H        -2.65984034658355   14.11251594755553   14.90686886745267
Ru       -0.30183220278537   18.01623628431162   10.24583426425973
P         1.29485527407676   19.31751056847563    9.23867044381927
P        -1.48193558098919   19.65070963158131   11.34416061573233
S        -1.37531274727314   17.78441034048394    8.03098997668131
S         0.61704222763378   17.33248394611491   12.42972754252487
S         3.20404959847220   13.12694531589794    8.80016204362510
S        -5.24306743655606   14.57122814417900   11.61759621924508
N         0.40361370172927   16.37790338966069    9.13311082818871
N         1.29616761315252   15.37993442941844    9.16768537626445
N        -1.48355602915415   16.59120092788389   11.24569332894605
N        -2.66382850906533   15.96076636717247   11.19502358561879
N        -0.03597182099006   15.63252981261031    6.98467893383231
H         0.66776237275832   14.94588563425097    7.25764811025263
N        -1.24069472502546   15.49642428347173   13.27139748133051
H        -2.14006498225345   15.11248544376342   12.97918060436726

