90
CSD_code = QUGXUL | q = 0 | S = 0 | Stoichiometry = C46H38Cl2OP2Ru | MND = 6
Ru        5.34052862388814    2.99814137905733    3.76882556453957
Cl        3.54397353798015    2.11274672535356    5.06340030272788
Cl        7.28199903688769    4.23740807787987    3.25437984391697
P         6.68221256782604    1.48181190768522    4.80270591226947
P         4.10944643034286    4.89451022612365    3.40210404705222
O         5.68496909156429    4.06998081350830    5.81681446701100
C         5.18188319318659    2.12061461396873    2.07761284534750
H         6.04475733947734    1.56106944078343    1.68281886422484
C         4.10397031313746    2.22503673084249    1.14560364101728
C         4.34724831594742    2.27504769218149   -0.23842486633353
H         5.36684054361092    2.21835272105753   -0.59399383467360
C         3.30872735005408    2.44128430857633   -1.12974037487262
H         3.51471481217581    2.50711260948434   -2.18865393960699
C         1.99949420879741    2.50763797050161   -0.67432608485447
H         1.18812898280175    2.62428754256162   -1.37769321826939
C         1.73586045078979    2.40751715337757    0.68322003659189
H         0.71620542140418    2.43451081582664    1.03860274594326
C         2.77109018520490    2.28517703781564    1.58623814082315
H         2.56933166142872    2.18038830526496    2.64283764712156
C         4.02173251108044    5.60418220927241    5.08538009737971
C         4.84831969416922    5.11617983622849    6.10357345059938
C         6.06612049400458    3.25718802435434    6.85263444176326
C         6.46696430505895    1.94760699899503    6.55672983537184
C         6.75027365804790    1.07357314860237    7.59754568970900
H         7.03528120415575    0.05694341228025    7.37263841728672
C         6.64259706950150    1.49786362962385    8.90743497914595
H         6.83516440094580    0.80928593991395    9.71595805042832
C         6.32151433694427    2.81509841077462    9.18695284248231
H         6.28746224986061    3.13483916039577   10.21534158895686
C         6.05132278200522    3.71851246600583    8.17008815453615
C         5.84910461140457    5.20474460127902    8.38505301262407
C         4.81650512633127    5.67839908796636    7.38254674537871
C         3.90542000154032    6.69157579013421    7.63637439718536
H         3.84604063155987    7.12939402283565    8.61904947994745
C         3.06614453100955    7.16642725588179    6.64257035014166
H         2.36636527600969    7.95815514954709    6.86296987531398
C         3.13646552348602    6.63935331187759    5.36946894420526
H         2.49317097503561    7.01061721381056    4.58416896098737
C         5.48003152691760    5.54995629787584    9.82674507977373
H         5.38974384532474    6.62633818584977    9.94574729531513
H         6.26314891582694    5.22022845517420   10.50428583744218
H         4.54117593460070    5.07980648259104   10.11100856582017
C         7.18260565471746    5.89992745672039    8.03141225558989
H         7.47722665147928    5.68743147905028    7.00514662243931
H         7.97237750086640    5.55200595758361    8.69466779456540
H         7.08128708337662    6.97793268132339    8.14021052587719
C         4.92372594411839    6.19701213430354    2.42713300574859
C         5.34391403212450    5.81871231616882    1.15322104748077
H         5.18637834287864    4.79559291925955    0.83183657755852
C         5.97328565806232    6.73122007382543    0.33006824935266
H         6.30077812180639    6.43334955912147   -0.65523246354271
C         6.19757823967504    8.02452135440465    0.77653455746045
H         6.69805777751873    8.73753254170355    0.13772912572348
C         5.79456232425154    8.39824331182805    2.04655063963899
H         5.98158883546492    9.40235543782789    2.39955147111529
C         5.15800586517085    7.48941130503172    2.87516100510309
H         4.85812691547149    7.78670057746306    3.87037406769717
C         2.37463770870329    5.04448479277684    2.87786892640294
C         1.38785895033557    4.50295392888140    3.69951861756022
H         1.67014640500289    4.02564183613740    4.62774348045515
C         0.06122784731900    4.56252134747555    3.31972057642251
H        -0.70012485832043    4.14327214837489    3.96121219257652
C        -0.29196329235479    5.15436097230338    2.11689347109107
H        -1.33001134994398    5.20125766131186    1.82111364451783
C         0.68770653297485    5.67999147235672    1.29160320818911
H         0.41578342332053    6.13557079073471    0.35049370843229
C         2.01847054461366    5.62384470420519    1.66567593913088
H         2.77986833236374    6.03212210843560    1.01645186467519
C         6.42102875798604   -0.31410988183933    4.74803108783220
C         7.38672085363895   -1.21629063773130    5.18830331247292
H         8.33324562251193   -0.85395919188864    5.56772533890810
C         7.14020557899600   -2.57486979829209    5.11942509285642
H         7.88825333592314   -3.27406752036180    5.46467783779921
C         5.94023179814640   -3.04038966170374    4.60453904506362
H         5.75406859215666   -4.10318134746674    4.55292703540669
C         4.98745898428727   -2.14585678319055    4.14599027572135
H         4.05813151095496   -2.50828446657387    3.73231140951046
C         5.22695839605033   -0.78495933584649    4.21249408959185
H         4.49358271099455   -0.07486839258613    3.84845849753901
C         8.48167064225230    1.60545902529297    4.59720902296583
C         9.31464616104368    2.26695641557584    5.48996848251622
H         8.90920473445082    2.70275406010418    6.39329746621833
C        10.66781578920508    2.37081140461576    5.21916632068881
H        11.31457762220793    2.88613201446137    5.91477408215409
C        11.19203764062940    1.82562304961949    4.06000588215042
H        12.24822747502358    1.91445725027357    3.85176293209788
C        10.36079232191338    1.17507563790735    3.16116347371552
H        10.76769513397838    0.75868554319683    2.25117305270088
C         9.01029766606498    1.06863003579069    3.42606335751748
H         8.34699780925438    0.57217654879664    2.72867496155505

