112
CSD_code = QUGZOH | q = 0 | S = 0 | Stoichiometry = C51H52O5OsP2Si | MND = 6
Os        4.76950652647852   18.44314484182187    3.04958999703963
Si        3.85079343153261   18.43730973631492    5.29817284076776
P         3.74334176565987   20.60998210588417    2.84215075938701
P         5.89424699448770   16.41544293777862    3.54358638320199
O         2.30374542186241   17.01064852959436    1.94774028518038
O         5.45956102570608   18.85996117946351    0.12547707843398
O         4.66064633600926   18.17408748913521    6.73970799889715
O         2.51764127091561   17.43140544722742    5.32009907861355
O         3.34710942126700   20.03992225746757    5.47949586897358
C         3.19109505721297   17.55727295109411    2.44322676563358
C         5.30979270388549   18.66608285097032    1.25419250153963
C         4.31733814234706   17.28491358397639    7.76355612307708
H         3.95225234590000   16.34541183995844    7.33322066648167
H         3.50536282419234   17.72179587948106    8.36351735731648
C         5.51882176015365   17.02667841985024    8.66247203249012
H         5.22065592954070   16.40544323270188    9.50341660882062
H         5.90715175007579   17.97121582019708    9.03510010066470
H         6.30564000085216   16.52272905132219    8.10929611478410
C         1.35909087102548   17.43124225353555    6.11427401860622
H         0.95607499476311   18.45012346091107    6.17002914400317
H         1.60216341778926   17.10388474687644    7.13280889934689
C         0.32384008967059   16.49706571498533    5.50268878596046
H        -0.59257981938747   16.52276868675957    6.08750121581666
H         0.70950369990463   15.48168416641199    5.48552782616376
H         0.10614626702114   16.79955864831704    4.48143006023810
C         3.19779524275362   20.73635561980797    6.69296535048175
H         3.88196169288947   21.59453967179924    6.66737962199005
H         3.49981066833791   20.09282675844626    7.52413374980884
C         1.76952977424460   21.22375877929865    6.90683201027436
H         1.72473917937787   21.84195592649634    7.80045665686970
H         1.09052794880142   20.38330384608583    7.02845734726511
H         1.43261288797393   21.80740505514008    6.05303811985790
C         6.64252479659351   19.39610647460912    3.71057937250107
C         7.89934572595259   19.29740001693371    3.07409799973384
C         9.02930846007229   19.90980835318191    3.60841561976768
H         9.97306750652669   19.80857177565587    3.08699033278136
C         8.98242684212848   20.63387190366163    4.78168830751898
H         9.87626769454135   21.09306334227849    5.18079187238486
C         7.76895684256324   20.75111242095610    5.42774125881068
H         7.68952890717669   21.31104802680173    6.34994660062320
C         6.64283304194714   20.15125139194615    4.89243642228507
H         5.72428774390780   20.28580475788797    5.44097201434644
C         8.12451440806151   18.55459805523127    1.78185736297764
H         9.16107974053791   18.22759240588719    1.71237090306183
H         7.92610426599405   19.20442308864952    0.92799899588660
H         7.48548398641240   17.67307730246711    1.69746418169069
C         4.61955853131529   22.06477266259042    3.49207128635061
C         4.08334338481198   22.94624811307342    4.42001769769013
H         3.07658248266215   22.80355605906722    4.77958048153460
C         4.83949770178574   24.01051852702830    4.88234079420627
H         4.41655938688951   24.69073158029481    5.60819468848731
C         6.13066573451984   24.20366866404959    4.42227868582709
H         6.71734281351860   25.03286194908404    4.78991211875160
C         6.66955574129582   23.33084195360251    3.49047600250280
H         7.67741670645798   23.47414103681062    3.13016093330869
C         5.92147193223043   22.26366172695687    3.03251192943732
H         6.34309607460660   21.56824455440375    2.31855844531882
C         1.97101611170763   20.94073098805244    3.15840110638788
C         1.10406323841688   19.94042965509940    3.57213313749423
H         1.49309739245004   18.95577025269450    3.77288472971267
C        -0.24295754699829   20.21105562313301    3.74345049857569
H        -0.91114960278013   19.42803010775871    4.07247837419828
C        -0.73519543495366   21.48066003725673    3.49484337286543
H        -1.78483832048739   21.69371405582925    3.63567819025757
C         0.12122244709444   22.47640579460661    3.05192507854261
H        -0.26118820300699   23.46454425770483    2.83981287763265
C         1.46497618737486   22.20701409274270    2.87201938759311
H         2.12618445952645   22.97982692570428    2.50297657745048
C         3.59067123396558   21.07811494238443    1.05870564842433
C         4.15418304943214   22.19671862881429    0.46054938392734
H         4.77280800574435   22.87177109289873    1.03359487699895
C         3.92913906436072   22.46016754874045   -0.88105439637028
H         4.37955306773871   23.33201357577105   -1.33348784215640
C         3.13526075428028   21.61896902941310   -1.63861286757034
H         2.96615771683945   21.82730855440780   -2.68471680145436
C         2.55451952529725   20.50863878402654   -1.04652282651110
H         1.92755388782984   19.84865525539281   -1.62810136980825
C         2.77935816189550   20.24534765855930    0.28936073086449
H         2.32185115212518   19.38042073058847    0.75251039530760
C         7.55146725916760   16.54701599007646    4.29510439392540
C         7.62779431263366   17.21530680578223    5.51695972345376
H         6.72316374599973   17.59725548603595    5.96770946600957
C         8.85167521027942   17.40741242268457    6.12738335840662
H         8.90407658536439   17.93109936050108    7.07034199891715
C        10.01009044691450   16.94476475837959    5.52289751767749
H        10.96841045578105   17.10443257311541    5.99502768830682
C         9.93810070751267   16.28678909175590    4.30800827895553
H        10.84003509367284   15.93107667619548    3.83074579475703
C         8.71472667434884   16.08935446932107    3.68985695734247
H         8.67390737816356   15.58827254983637    2.73323399740084
C         5.06649498330633   15.25568487651975    4.70155178263728
C         3.79187309226154   14.82286539052216    4.34751882427570
H         3.32936026589661   15.21381757329932    3.45349619281723
C         3.12351641433129   13.89764149457321    5.12436257916500
H         2.13958217507506   13.55895439237283    4.83327079543105
C         3.71700959658190   13.39680719922399    6.27236343160351
H         3.19198149587510   12.67997003555466    6.88681054607007
C         4.98894262075007   13.81274042745591    6.62340709161303
H         5.46111089026815   13.41931389752267    7.51223055997986
C         5.66738619004185   14.73017642896613    5.83795448642242
H         6.66657899686548   15.03249497088802    6.11560310331844
C         6.13066458017819   15.16276566962425    2.22150524856303
C         5.66799094363491   15.37631269113046    0.93076373154611
H         5.18729941406312   16.31401426436456    0.68602013796198
C         5.81152521418027   14.39598281305034   -0.03675332758058
H         5.45019639924716   14.57450986277153   -1.03869517997384
C         6.41310847279754   13.19116579406504    0.28133517058265
H         6.52618598575019   12.42615275185317   -0.47246540820803
C         6.86297717459469   12.96366247480747    1.57316442227466
H         7.32379369185271   12.02010576372946    1.82689772127076
C         6.71831097972178   13.93923302955772    2.54022480053214
H         7.05813612976797   13.75654279068532    3.55064017659352

