71
CSD_code = QUHDUT | q = 0 | S = 0 | Stoichiometry = C32H31Cl2N2PS2Zr | MND = 5
C         4.83837808899799    5.10466237541318    4.62986052141868
C         5.64208124247491    6.13132667961193    4.14482331354685
C         6.23046478464076    6.88654508177995    5.20534715624377
H         6.85733796308420    7.74450624513741    5.03354580962370
C         5.89056939415866    6.41952292586221    6.43186062151162
H         6.19144787925214    6.80346498352164    7.38679814776422
C         5.27500837062988    2.63080615356913    3.39078867705671
C         6.10010111054405    2.54007831093791    2.27355992335245
C         6.92284027454095    1.37244879932948    2.31937130725286
H         7.59975447926140    1.10211710325211    1.52788624676918
C         6.76073968280984    0.66401358944790    3.46325335680324
H         7.26733252834590   -0.23440737771112    3.75662036700226
C         2.69859039182724    3.24761618686934    4.45765139859325
C         2.34001368146235    1.91139268571213    4.30781408825354
H         2.90871979050195    1.27093749745821    3.64846343273283
C         1.26212047304425    1.40073230492884    5.00627235373528
H         0.99760912743906    0.35917793454029    4.89760019537556
C         0.51949621757618    2.22230818654751    5.83827856475527
H        -0.32095473418190    1.82039853373473    6.38431033218417
C         0.84692014593291    3.56314139793296    5.95725588216334
H         0.25766295815076    4.20990195831476    6.59040643520912
C         1.92424351352191    4.07901491227484    5.26221812708107
H         2.16889308286908    5.12892790872315    5.34063166827076
C         6.78064293012246    7.19764253256472    2.29679704929382
C         6.41462478176456    8.31126180271534    1.52043103817410
C         7.40952452228648    9.10266341430219    0.96751594256814
H         7.12797756494776    9.95889904761935    0.37152818419201
C         8.75380400434289    8.81457333237241    1.16073577794097
C         9.09859075840600    7.69895668383624    1.91521933652515
H        10.14347448154252    7.45775445807512    2.05308993274106
C         8.13701406904576    6.87825047963369    2.48306103251917
C         8.51956078149717    5.64639559138003    3.25538244506988
H         9.53063098649111    5.33903358809625    2.99815720588721
H         7.82242071975470    4.82940640718675    3.03389929956686
H         8.48531347233656    5.83380113157766    4.32981252418960
C         4.95559456939823    8.60869016176629    1.30112141124756
H         4.59434742794081    8.08406505022686    0.40613497210749
H         4.80563269104809    9.67544009464020    1.14319502820530
H         4.35840115216844    8.28637485956922    2.16233379915992
C         9.82569636617927    9.67710209129463    0.56633529410169
H         9.39538364328764   10.46597569597756   -0.04427558009799
H        10.49168081406709    9.08016831855101   -0.05472372007770
H        10.42491130081557   10.13423904785094    1.35333741229950
C         6.34787640791350    3.07809743522948   -0.03934135451852
C         7.58734656565483    3.30536781076522   -0.64938454313116
C         7.77927532003814    2.88204687638075   -1.95438740377590
H         8.73438453015084    3.05636234984384   -2.42904088555119
C         6.76902895444405    2.25157928607709   -2.66950271932292
C         5.53227463598004    2.07242896421826   -2.06414453210353
H         4.72862482398001    1.61368663238405   -2.62299478986348
C         5.30064243247466    2.48562595633982   -0.76085546288005
C         3.93994823325587    2.36934944845807   -0.12558411157581
H         3.26532914017938    1.81595603321267   -0.77597489723074
H         3.51343149728191    3.37486182030480    0.03980859603739
H         3.99331153569825    1.85274144761222    0.83775224878034
C         8.64614788619928    4.04492847809296    0.11250236527413
H         9.55252505275682    4.13790234748327   -0.48006892172723
H         8.88161625503756    3.53069589698955    1.04427735943307
H         8.27640175592988    5.04810779781985    0.35717230872712
C         6.99695886404160    1.82007163904589   -4.08634206276827
H         6.81526704000792    2.65723772629608   -4.76065781450411
H         6.32290736306893    1.01234784805591   -4.36074375522907
H         8.02324950331183    1.49014196646986   -4.23056258989904
N         5.75673929990904    6.37580346587789    2.80844173489382
N         6.10943288430370    3.49999709002097    1.29790294761931
P         4.05674699714256    3.95676773016657    3.47921397171578
S         4.84718326177382    5.05521051858552    6.37764062713553
S         5.60786986709709    1.35329124399294    4.53819796058535
Cl        5.84828618515158    6.05204000752164   -0.79964457934600
Cl        2.84756274990952    5.76773962954614    0.83495710062157
Zr        5.08863346725714    5.25508438938294    1.26235689018782

