71
CSD_code = QUHDAZ | q = 0 | S = 0 | Stoichiometry = C32H31I2N2PS2Zr | MND = 5
C         6.97985539127878    4.48261523524798   13.16229030635035
C         6.20276283058412    4.21237198431145   14.28341591897305
C         5.58548256578496    5.39525392113354   14.79297223193952
H         4.96713708318570    5.39997075930343   15.67436315851345
C         5.88562448236459    6.49652662173476   14.06200604495310
H         5.55837563211367    7.50352315200029   14.23220363462207
C         6.53784410528355    2.77516403393211   10.96971767632452
C         5.77407050774763    1.61350756309037   11.06280305124825
C         4.97490319073099    1.41802449929227    9.89425586498848
H         4.35480472175693    0.55246241399244    9.73903130485433
C         5.09221230716750    2.43589941860423    9.00741461631731
H         4.58854185105045    2.54338803265850    8.06669390976071
C         9.11881859552362    3.94632565840799   11.38180306441766
C         9.47445853118644    3.55717196992654   10.09422194744128
H         8.89962014952059    2.79992464861632    9.57905175167311
C        10.55902928755915    4.14526955771284    9.47129849730283
H        10.82293550333485    3.85227082506639    8.46585392481726
C        11.30862621131854    5.10200158333295   10.13580719689902
H        12.15428318821278    5.56059218495008    9.64563749665958
C        10.98257174372340    5.45995797213457   11.43388977750888
H        11.57779148551188    6.19107793913948   11.96019080290563
C         9.89829801095071    4.87805327089710   12.06194546920510
H         9.65272304242625    5.14455432549209   13.08067105337500
C         5.08322660134967    2.62600153053117   15.70850144068566
C         5.39777017971394    2.19378953366534   17.00918527909189
C         4.37304006947467    1.78907517250016   17.84916308524231
H         4.61635998513958    1.45100581911756   18.84564938750236
C         3.04726520206215    1.79482279523456   17.43443754725787
C         2.75181706041505    2.22855416166085   16.14895007792185
H         1.72419432915464    2.23537614085502   15.81295072668716
C         3.74519144859592    2.64645893297930   15.27568232653663
C         3.40434447765362    3.10785420653687   13.88406465810571
H         2.41045776756834    2.76467001499601   13.60400842482489
H         4.13311754260498    2.73431337394375   13.15208976314338
H         3.41202146097018    4.19859569116821   13.82931875241903
C         6.82971333224302    2.15937704034956   17.46514026513179
H         6.89699678516314    2.45104766129718   18.51152691576667
H         7.44845445647449    2.83860154360836   16.87156994899999
H         7.23636070686615    1.14593907178690   17.38599574667834
C         1.96812895899848    1.31105389835220   18.35198031499258
H         0.98839105255256    1.63440963660840   18.00969569269349
H         2.12959529037068    1.67783087502788   19.36328624736850
H         1.97854476168900    0.22168041771345   18.38638221169649
C         5.54584944689390   -0.57433989906960   12.00739499264658
C         4.23682933591967   -1.06053367089593   12.13434973780533
C         4.00594915396895   -2.41772339944158   11.98639247415866
H         2.99782627931423   -2.79168397490263   12.09143269710833
C         5.03940186091354   -3.30921510002073   11.72996791785986
C         6.33272360857713   -2.81762793141416   11.64054395751265
H         7.15309568354547   -3.50018461070261   11.47138722546106
C         6.60566260486075   -1.46410465174582   11.78027030603277
C         8.03547429429383   -0.98557543066446   11.74754219595847
H         8.56831904009412   -1.46112245640230   10.92436534611928
H         8.54559831336276   -1.28086730514638   12.67275722561437
H         8.11165583592386    0.10467854459593   11.61448293652981
C         3.12582904511208   -0.12481727136359   12.51144859453463
H         3.28405081146502    0.23506962784122   13.53401631014318
H         2.16825410087928   -0.63791792266454   12.47616215715320
H         3.08563170294216    0.73813810518002   11.84689799724741
C         4.76661795307437   -4.77578672507810   11.60866538400804
H         5.52908690710725   -5.26556370740758   11.00821529896106
H         3.79153837682765   -4.95417623075083   11.16145698238699
H         4.77142198413732   -5.22974176736939   12.59969601219581
N         6.13413436902881    2.96120873733767   14.82521542021151
N         5.83525645154943    0.81064376914526   12.16729450724895
P         7.74780144063641    3.13212907759849   12.25210183276239
S         6.92061241398564    6.17594844176458   12.72872945771264
S         6.17330439411777    3.67309802025784    9.51291030987706
Zr        6.71995154708670    1.22166969008109   13.95565961466489
I         5.79269414435464   -1.01355871570929   15.45450494589887
I         9.42026701275049    0.90679166799814   14.80862064834419

