89
CSD_code = QUHKAG | q = 0 | S = 0 | Stoichiometry = C38H39F3N4NiO3S | MND = 4
Ni        4.12149794884575    3.92083727640944    2.73535706929639
S         2.94004753218826    1.77136162026730    2.80664970552634
F         1.14509103628882    1.16432161487586    0.89044554450077
F         3.04438534393316    0.17480270915066    0.63908291488317
F         1.66070554498342   -0.50789336905382    2.14244707124354
O         4.30225695502209    1.92001410768653    2.31567519438347
O         2.13515182482719    2.97878315653563    2.68265538157963
O         2.82159040723555    1.08683360967673    4.05922057913193
N         3.98164787180810    4.41699405121028    0.69114689624837
N         5.81224525431670    7.06762625391078    1.68959571186984
N         3.57206783582311    6.53885365834034    3.71820331652592
N         4.61254208911232    3.36251993632311    5.61891596845720
C         4.56014916370211    6.26272156936941   -0.85601576156591
C         4.39434123733208    5.60261728150260    0.46408423014273
C         4.81257035525432    6.29180993806621    1.69820275814715
C         4.09694738332068    5.77956121902185    2.89349678658174
C         4.62283600881697    3.73413219247025    4.51599092214589
C         3.67622643814812    3.50850076254972   -0.33844547619707
C         2.36623195461300    3.40801036272408   -0.81115988958496
C         2.09647008580257    2.47250636841610   -1.79853683366130
C         3.09627899497432    1.65638180517376   -2.29577272121348
C         4.38747364670703    1.76495216563555   -1.81114452748025
C         4.69943703291694    2.69186098865828   -0.82969815269183
C         1.29671660127932    4.27808933046698   -0.22907557538769
C         6.08137740485628    2.82643907759257   -0.26950998814072
C         6.49603946746886    7.49813471788648    2.81396280893137
C         6.35342225302115    8.81733824086547    3.25271451423563
C         7.14049805977933    9.26094669878939    4.30270967472101
C         8.05788746405848    8.41844019259383    4.90533038595916
C         8.19385027125186    7.11612889343602    4.45871107943340
C         7.42277701733479    6.63345252392902    3.41266272285285
C         5.32726807680725    9.69258784796293    2.60234498633463
C         7.59746198479740    5.23508927969614    2.89890665439221
C         2.90056710901495    6.31547711891557    4.90748224420638
C         1.53082547805548    6.02695201280628    4.88442553741785
C         0.86466297352895    5.88388722709303    6.09182611076179
C         1.53371874176020    6.01919328970281    7.29591797043693
C         2.88589354562355    6.31208369546478    7.30317753292486
C         3.58447040853032    6.47777845365819    6.11776568858999
C         0.82796306855676    5.84547004868235    3.57783289185010
C         5.03894282574825    6.83241105225579    6.11938108274960
C         4.68397553800161    2.99657050567963    6.91826699070478
C         5.92753723196243    3.07117088262841    7.56231217274957
C         5.98558211598647    2.70837202653597    8.89750543422108
C         4.84760733113368    2.28418863054739    9.56430111841550
C         3.63227023813685    2.21194273917773    8.90642464522528
C         3.52053862517518    2.56444114813530    7.56923549397056
C         7.13672083707330    3.52312123186111    6.80667180693428
C         2.23041573825003    2.49144465135959    6.82986167578203
C         2.15567187512811    0.58527314111722    1.55167189308785
H         5.52129508892047    6.77240333650941   -0.87706041653396
H         4.48634722181688    5.54387665228317   -1.66876310232636
H         3.78677882080220    7.02062009292468   -0.97910013560468
H         6.93001846636909    2.75583496491601    9.41865603304336
H         4.91150613502568    2.00480198724012   10.60520994152884
H         2.75397115355575    1.87315755023939    9.43460205518703
H         1.93811705354557    3.48007970240979    6.47599947557611
H         2.33358540106826    1.85381173232588    5.94995372234603
H         1.44329655098640    2.09666172282141    7.46591593392794
H         7.27211460450387    2.91836379733494    5.91052486965812
H         7.02371504803045    4.55916903915148    6.48814432719251
H         8.02644994596198    3.44211457133393    7.42517099954983
H         1.08603601574979    2.37629989622015   -2.16681106627276
H         2.86600268402879    0.92455647983871   -3.05512437771215
H         5.16358329880018    1.11723550055949   -2.19040949308934
H         1.49921294169604    5.33324642388147   -0.41637135858017
H         1.26031548220420    4.12515105380889    0.84930635009360
H         0.32739374035109    4.02630294870056   -0.64961653854108
H         6.72886594723202    2.04252917645789   -0.65243042015670
H         6.51636936599138    3.79517225714615   -0.52091917884407
H         6.03734889609310    2.74629131660668    0.81996400901466
H         8.91366202387438    6.45984780285568    4.92636223975035
H         8.66815205651405    8.77674810825281    5.72031815625838
H         7.03206188464863   10.27816272018210    4.65003785580297
H         8.37835112251497    4.72156141864088    3.45361500991828
H         6.66825350938654    4.65117187890845    2.98390242534211
H         7.87169506984584    5.25595994953751    1.84460109911866
H         4.32760701237658    9.31933461900574    2.82622437937057
H         5.45218715145392    9.67697285069415    1.52065287854424
H         5.40805753430819   10.71622298038853    2.95787647788114
H         3.40994757594956    6.41734337773032    8.24195400948521
H         1.00243232699511    5.89509360709272    8.22746421224578
H        -0.19087423882499    5.65485299991016    6.08467505787338
H         5.17427009912548    7.86286622628579    5.79190783747901
H         5.59165321467014    6.20210792367396    5.42564038520004
H         5.45860220392208    6.72916821058798    7.11679166987113
H         1.14927132730245    4.90301931492345    3.13206434572944
H         1.07770703724993    6.65092593301628    2.88833364184593
H        -0.24921500235441    5.81172593785315    3.71742244713410

