82
CSD_code = QUHKEK | q = 0 | S = 0 | Stoichiometry = C37H39BrN4Ni | MND = 4
Br        1.98738960275083    1.88558463907853    4.45840306619867
Ni        2.98816636076246    3.01360039833249    2.70609480817134
N         4.56054298941666    3.71734965040691    3.69324110959462
N         5.67923911717520    4.29204542747962    0.49582920020847
N         2.75250556795831    5.26508610235570    0.87386390666168
N         0.78195742826389    2.16220367843639    0.97202366143707
C         6.83678362333201    4.50867482104647    3.13099241764121
C         5.41295977486115    4.18134814064233    2.85573851421469
C         4.89364303118228    4.36613769635391    1.49635248114001
C         3.43106946460050    4.39897364552471    1.44902376248845
C         1.73707407860968    2.46007321622790    1.57502152835875
C         4.94723218602479    3.34941150669257    4.99939357515291
C         5.48242064185983    2.07282425828764    5.19762000453066
C         5.82709994548454    1.69560180489254    6.48541085582326
C         5.64942219082158    2.56445909188327    7.54652706670330
C         5.10575371543524    3.81846288022399    7.33440823730100
C         4.74016607533524    4.22881664138760    6.06203723362897
C         5.64495578107085    1.14109007999001    4.03422250139146
C         4.11280904293682    5.56625951346420    5.81361052427035
C         5.28952351237498    4.21661707604529   -0.82672572775499
C         5.43986942085270    5.33570480459187   -1.65402468080910
C         5.15647050285313    5.21325909091328   -3.00318039139453
C         4.73493908123187    4.00661213064767   -3.53435206215954
C         4.59706992138945    2.90355541993936   -2.71103715814037
C         4.87383799520596    2.98603947345051   -1.35526511299787
C         4.76925701881619    1.78268663342289   -0.46633605003569
C         5.86790231088578    6.63692178138402   -1.04704556721217
C         1.38234182646425    5.35657456799712    0.70536398823936
C         0.88154042380663    5.32803683275352   -0.60242825872723
C        -0.48807338041775    5.40157698951904   -0.79344679361690
C        -1.34767642922160    5.54808891704772    0.28040672453870
C        -0.83757672389284    5.63447134890716    1.56303332073416
C         0.52478930766257    5.53257114027123    1.80022657009673
C         1.07088188735123    5.60867861395439    3.19358779222679
C         1.82569180069986    5.21833706366890   -1.75924717753949
C        -0.39549234500113    1.89249513245402    0.36301041967893
C        -1.57037177232869    1.94899801888218    1.12606912351119
C        -2.76958801035001    1.72121150306399    0.47012211333725
C        -2.79797567505750    1.43950786110821   -0.88507687316676
C        -1.62231557160715    1.36718628243708   -1.61310807054318
C        -0.39855204295998    1.58908460533421   -1.00369046914354
C         0.89243909478572    1.48784039365777   -1.75231908191158
C        -1.50320725441833    2.25021451594696    2.58582444500136
H         7.44607087620638    4.16506446656193    2.29667566227171
H         7.17675298925445    4.06724537181590    4.06566316101699
H         6.94761923114098    5.59206232186822    3.19093498780680
H         6.23159719023769    0.70854707050474    6.65407655282826
H         5.92301181375562    2.25793134044637    8.54470681595016
H         4.95184404050250    4.48909750838231    8.16692268112508
H         6.49826184527217    1.42626138047419    3.41522811916266
H         5.79162715591415    0.12070106971968    4.37814832846568
H         4.75018818605648    1.16057956723220    3.39714642317585
H         4.68362385898712    6.14266790712618    5.08408863413764
H         4.04830990285582    6.13774624491330    6.73570913928949
H         3.10516840719515    5.43001179554382    5.41939941995108
H         5.26526136598376    6.07593141180655   -3.64470240510824
H         4.51659162915129    3.92495890642501   -4.58834351793650
H         4.27148458936298    1.95910485544013   -3.12387621011933
H         6.78203933747314    6.50042615482724   -0.46992228915032
H         5.09838552636746    7.00332260228188   -0.36592136531050
H         6.03976946628702    7.38590514881984   -1.81570323412833
H         4.49793257495518    0.90097438613017   -1.04186672923339
H         5.72188376785947    1.59803831471152    0.03135570975381
H         4.01209023645942    1.92473144652380    0.31538788289079
H        -0.88286131572359    5.34962741473267   -1.79754788876233
H        -2.41315715137164    5.60425552127815    0.11749997400493
H        -1.50720191799735    5.77720549858081    2.39907362296313
H         2.52330199658606    4.39311113420791   -1.62455758449466
H         1.28338642626982    5.07610824049073   -2.69071968025838
H         2.42376487537264    6.12650890653934   -1.83880845091796
H         1.81905008517385    6.39837958221865    3.27077229671704
H         1.55290431170583    4.65462215444071    3.47208501270188
H         0.27711565332147    5.79902367593970    3.91129455926460
H        -3.69105986504073    1.76147910883874    1.03132141495971
H        -3.74338102077243    1.26688766649760   -1.37714417923857
H        -1.65340059674660    1.13515389936983   -2.66733524738029
H        -2.49322505183239    2.22481074094994    3.03134029947790
H        -0.86529525514444    1.53367650714777    3.10290170974785
H        -1.06844645191650    3.23607361748385    2.74651059989371
H         0.71209517741887    1.35231748446806   -2.81524135221957
H         1.47167054445586    0.63908881789569   -1.38635603490387
H         1.49361004795389    2.38368736725940   -1.60767231552318

