83
CSD_code = QUHLIO | q = 0 | S = 0 | Stoichiometry = C26H52ClNP2Ru | MND = 7
Ru        4.49961166321586    1.44699556937856    1.92822562071533
Cl        3.67158909885274   -0.37569824729606    0.55154965306902
C         3.43903548562193   -1.22993923566760    3.56848173393175
N         3.91478637648690    0.13875009719846    3.56169297852427
C         4.05954945925188    0.66709958772597    4.72453157972439
C         4.57232818810155    1.99179812884414    4.83245850187702
C         4.74699585273408    2.61099740332073    6.07462724607099
C         5.25019884621373    3.88885577112091    6.13954073981991
C         5.57103816347737    4.54267531021774    4.95566918007610
C         5.39485343967198    3.92365301142834    3.73060746856185
C         4.89419054223084    2.62155896979811    3.61058823921266
P         6.75414367416591    0.65244280660451    1.87748849361750
C         7.85432792041591    1.68599610072547    0.76061809231937
C         7.50968338897599    1.51310138298782   -0.71727204616059
C         7.80347726367221    3.16644878606547    1.13128303385876
C         7.68528410911325    0.81231865139582    3.51252849206292
C         7.33311152435502   -0.33838676665338    4.45310021621380
C         9.20169928027173    0.99277170255527    3.47493935923299
C         7.11798627830405   -1.03882949963181    1.14203393300023
C         6.29270984299486   -2.16329079119356    1.76068435108640
C         8.58423497606331   -1.46029351801965    1.07233561572667
P         2.37277155051090    2.51296132991340    1.62665958562560
C         2.38808669884562    3.73255246950656    0.20129528369240
C         3.50351779628731    4.76498086285901    0.35219693198985
C         2.51050647825723    3.02851328963528   -1.14888743557413
C         1.85437316319759    3.63911848859510    3.04587964729222
C         1.29408028590133    2.81148048062776    4.20119221261089
C         0.92261787229526    4.81143727690550    2.74711823561383
C         0.89049820656974    1.48149470104461    1.11046396863759
C        -0.41556821713539    2.21981269392030    0.83065647660573
C         0.62496947622570    0.31476156949239    2.05629786019791
H         4.73833990365574    1.76131044952954    0.46537245900495
H         5.06440281710730    2.77180901214268    1.59054903358672
H         2.54685234329489   -1.32675973860127    4.19647049774886
H         3.20455017651237   -1.55817162464576    2.55670543628561
H         4.21040771575566   -1.89274361752199    3.97471754069999
H         3.80474617036787    0.10795978203876    5.62901108595071
H         4.48180416378171    2.07366482212609    6.97558295774367
H         5.39211459576194    4.37914441020344    7.09157923522876
H         5.96288567608265    5.55013443172062    4.99104388743871
H         5.65745764529129    4.48794323479948    2.84505550430942
H         8.87602380649534    1.32966538375332    0.92530799165979
H         6.43311705776570    1.59174065835616   -0.86769352040558
H         7.99291565673585    2.29577963885745   -1.30038763159183
H         7.84431927421980    0.55365034338392   -1.10303556681545
H         7.84662133116334    3.31449047920128    2.20771452181653
H         8.64149412329483    3.69212395632272    0.67402740628401
H         6.88272930107930    3.61153462168194    0.76300285988252
H         7.25070973375873    1.72897182168707    3.93626641457358
H         6.27319408235745   -0.57262281138145    4.39818525722832
H         7.90433635595922   -1.23033560126969    4.20492856841484
H         7.56612401812148   -0.06572518947700    5.48240305730399
H         9.70012324713032    0.15731464792966    2.99306692567778
H         9.49197550279571    1.91156313311197    2.97462092675903
H         9.56492205613971    1.04970750415816    4.50135239960827
H         6.73354937398919   -0.90755135953555    0.12050012800710
H         5.23885927142422   -1.91203465334640    1.71106037154568
H         6.44159661158330   -3.07625564729748    1.18448799351319
H         6.57529195918125   -2.36682176799374    2.78973357692409
H         8.96191383911958   -1.71552857086015    2.05973046601436
H         8.66215834360390   -2.35264977960053    0.45128904348847
H         9.22329157470202   -0.69850339887140    0.63494647892688
H         1.42915869725153    4.25974511139061    0.23924142052387
H         4.46126360193487    4.32108612873465    0.09268152747893
H         3.32454588648007    5.60412310256122   -0.31967907965674
H         3.56547340536907    5.14385298553560    1.36991998667174
H         1.58029407603492    2.54849641926769   -1.44160837956160
H         2.77312746163207    3.75149489099914   -1.91990293562522
H         3.29282846342450    2.27052838159227   -1.11285786683438
H         2.81645353533436    4.05400827417813    3.37631402516374
H         1.37308025649361    3.36717707783494    5.13529804607601
H         0.24431427072601    2.57891491355130    4.03640596837458
H         1.84732028821395    1.88108089937610    4.31426208643880
H         0.71727329013850    5.33303506433354    3.68218868705091
H         1.37350365405553    5.52636062117536    2.06528134006711
H        -0.02661302572214    4.48445423722929    2.33428203174505
H         1.26053659501488    1.04092264158631    0.17435097582137
H        -0.87381540928959    2.56352115641552    1.75521634534338
H        -0.28801863215260    3.06682296314576    0.16262688750833
H        -1.11214967204078    1.52742610953828    0.35789806252409
H         0.15910105251875    0.63466688308550    2.98447089626535
H        -0.03964850078822   -0.40108392677651    1.57361211135499
H         1.55555429199738   -0.19357688876135    2.27731730722462

