41
CSD_code = QUHNIS | q = 0 | S = 0 | Stoichiometry = C12H14N4O10Zn | MND = 6
C         3.98313344952771   10.80552406429714    7.08400215814267
C         2.58482529151196   11.16328860932984    7.47879805659565
C         1.90532307027803   12.35739413606070    7.52224622770753
C         2.27307963414595   13.76930151880932    7.22922722203580
C         0.57079620712953   10.70475386601446    8.12594695743415
C        -0.62854190462987    9.96580684593810    8.57048270957027
H        -1.47818100816652   10.19814424422488    7.93157688627517
H        -0.88967733656977   10.23499618142983    9.59313666180086
H        -0.41647069118778    8.90031665581544    8.52084538015480
N         1.74312375953440   10.16289655394511    7.86262931819818
N         0.63670032713814   12.03574922526512    7.93537228137835
H        -0.09211048497849   12.72660695560468    8.04943872691602
O         4.24576622220451    9.57270516301051    7.11696824614205
O         4.76158469611998   11.71148442127232    6.77411721492294
O         3.50502440564045   13.98711984128286    6.84603097288100
H         4.08035586230088   13.14666127692752    6.78635041770818
O         1.43709959373615   14.63358487281628    7.35986207548368
O         1.89301513346494    8.55703851893146    5.42034518408378
H         1.09950508000749    8.01319636036801    5.37810866048688
H         2.48717882223701    8.27563499150217    4.71838297199943
Zn        2.66215633724058    8.42115500119100    7.51863673064086
C         1.34264880070479    6.03701921310735    7.95841338734305
C         2.74112221155890    5.67928631484839    7.56421804257462
C         3.42200720522617    4.48580876627066    7.52563655440716
C         3.05597276164104    3.07473129900597    7.82453050687546
C         4.75463212266369    6.13754872425792    6.91533723542677
C         5.95322700227795    6.87611253301777    6.46814040092227
H         6.80310977424250    6.64658267957389    7.10774287002926
H         6.21453253826349    6.60384236853960    5.44634030616447
H         5.74026529153627    7.94157951764658    6.51446885064009
N         3.58165105431778    6.67909905602625    7.17630398119337
N         4.69029839609733    4.80726161470758    7.11133308566252
H         5.41995549451138    4.11683058800084    7.00021028804231
O         1.07883064768108    7.26947756697118    7.92144536747018
O         0.56518407709256    5.13139115016478    8.27173247468086
O         1.82453163549113    2.85704534497169    8.20946171435020
H         1.24802123826583    3.69696929098080    8.26509344247621
O         3.89319196318293    2.21099069493693    7.69812076476278
O         3.43247515080031    8.28188358620327    9.61673013805344
H         4.22539882708477    8.82633850392494    9.66114669284853
H         2.83915734067514    8.55784188280681   10.32158883551810

