69
CSD_code = QUHNEM | q = 0 | S = 0 | Stoichiometry = C21H39BN6PtSi | MND = 6
Pt        7.32985079124997    4.04608994092707    1.15784374659530
Si        6.46226550043064    4.92846963142695    3.22732762530289
B         6.87602205510326    5.64813172141077   -1.59221631909266
N         5.49584779356712    4.45731448249287    0.12561812266027
N         5.54277596055776    5.27775040433355   -0.93705797167390
C         4.30316814551616    5.47293703784659   -1.42393148018348
C         3.43355488441636    4.73513274317364   -0.64564599054905
C         4.22769071260478    4.10006548951450    0.31251466066929
C         3.98911199413382    6.34041488032022   -2.58868181378480
C         3.75164937418188    3.13674817339406    1.33868406420930
N         7.94576941990373    3.46898830938216   -0.92408338152159
N         7.62214765757897    4.33273415680418   -1.89897853871311
C         8.04735073967014    3.85233046618708   -3.08429775243012
C         8.66357086462557    2.63837533310983   -2.84605388622952
C         8.57548402366063    2.43665180435529   -1.46431084807210
C         7.85672051316908    4.55074450492423   -4.38254221099127
C         9.07643830666720    1.29121752055258   -0.66232362751366
N         8.23194318592239    5.88393818768816    0.50809487023445
N         7.74480592864820    6.44790789942198   -0.61255847570909
C         8.37971351987560    7.61105032081244   -0.85436715425309
C         9.31981473787980    7.78417227525393    0.14064778283618
C         9.20627713402903    6.66359016602253    0.96873715476124
C         8.07319904769012    8.50962891688361   -1.99739487557333
C        10.10402633349279    6.33511919481289    2.10578922094801
C         7.63558283092150    5.89533707308429    4.44233313742438
C         8.61506995968169    5.02403746694874    5.21931791008882
C         5.67875795285164    3.57102288425892    4.38356233290496
C         4.86461903734132    4.13813186296905    5.54146642569984
C         5.09312276938127    6.27334089256662    2.88034203775790
C         5.57098790041074    7.47142813217710    2.06836728099342
H         8.62332825539688    3.64114091978104    1.83615343656833
H         6.81299350112934    2.67471053095194    1.54074087580976
H         6.69529635293019    6.26406513613088   -2.58082297273737
H         2.37088242664076    4.65802092477550   -0.75540040224475
H         4.39451209758101    7.34046214778259   -2.44588514653603
H         2.91071407740734    6.40936809702929   -2.70564431587784
H         4.41445540991672    5.93087513286949   -3.50391217343920
H         4.53744622428788    2.42636323168033    1.58295026336424
H         2.88665597036549    2.60033966910507    0.95345596734891
H         3.45516033273977    3.65137821625277    2.25124965019114
H         9.11411085751384    1.98814625446530   -3.56830733300093
H         6.79815970866864    4.70137630102672   -4.58938129943620
H         8.28843060829221    3.95221988288506   -5.18047700869618
H         8.34165622427274    5.52582509731976   -4.37272323886498
H         8.60601552886612    0.36516949499942   -0.99011044184712
H         8.84882639409966    1.45538199359930    0.39019835131464
H        10.15371036491367    1.18680298958654   -0.78408157270495
H        10.00333990574286    8.60100389995323    0.25333322066155
H         8.35438679407236    8.04694200889397   -2.94249166631001
H         8.62905824386198    9.43683568146481   -1.88463899102233
H         7.00937569000687    8.73649681891336   -2.03539225002417
H        10.14864391855375    7.16086643376825    2.81354776901269
H        11.11263218691687    6.17090485595230    1.72471089442470
H         9.77128843377076    5.43527855675377    2.61208304953093
H         8.18529720644120    6.66526848328574    3.90618293999923
H         7.00129965247417    6.42364335426347    5.15590129780390
H         8.08126914983939    4.36683385005215    5.89942194231303
H         9.29785001577833    5.63687546033236    5.80667475664312
H         9.20163251015495    4.40047020767667    4.54967088154044
H         5.04865319354118    2.88708938593601    3.82087676298731
H         6.49014751463571    2.96496451177797    4.78478922434304
H         5.46785285603106    4.80197049426197    6.15400001740675
H         4.49485862444876    3.33473329680160    6.17735440624983
H         4.00834632668818    4.69792743314443    5.17420530397118
H         4.73657719023916    6.63416882472361    3.84609807127752
H         4.23218869087261    5.83669578354660    2.37678167429595
H         6.43842210518120    7.93442656533647    2.53282141815615
H         4.78537451832607    8.22315715723819    1.98959222261748
H         5.84511186219226    7.17339904264456    1.05977236808910

