64
CSD_code = QUHPIU | q = 1 | S = 0 | Stoichiometry = C28H30AuClNOP2(1+) | MND = 2
Au        9.88066166801732   13.18411979697634   14.27010338602855
P         8.84088738209589   11.78833017909982   12.86488606753390
P         8.49652631951273   14.34085721473386   11.53944397568321
Cl       10.90741642025363   14.86297323449718   15.39826436059757
O         9.94530814610499   13.82857886385958    9.44765748641432
N         8.53161791291206   12.66549352408535   11.39911080472194
C         7.22724634365482   11.12896505911475   13.34414546333457
C         6.99997394720559   11.03329656872605   14.71383712949021
H         7.77480338191750   11.35393393770163   15.39950889953568
C         5.79518586017032   10.54202034152523   15.18197069969766
H         5.61957198240895   10.46787237620782   16.24384559255567
C         4.81445594867138   10.15222100871287   14.28397870904589
H         3.87196587141967    9.77252346904477   14.64696449240199
C         5.03701250021292   10.24996604713367   12.91841954916166
H         4.26956906499366    9.94453259956755   12.22309886732711
C         6.24047694246995   10.73611211726271   12.44238310978739
H         6.40897883995823   10.81858980494051   11.37695343523850
C         9.79009688459359   10.34855657198275   12.31336537561411
C         9.20654157515818    9.11997645525219   12.01113368542481
H         8.13579668567929    8.99215037450578   12.08616255673685
C        10.00787349166477    8.05758190650729   11.63180100811547
H         9.55644433024447    7.10520671074903   11.39997567589009
C        11.38360462089057    8.20926387657019   11.56119833922637
H        12.00239257091342    7.37496092726667   11.26986692587739
C        11.96949585412797    9.42343641527133   11.88677823389013
H        13.04265071899196    9.53318349332427   11.85579849777819
C        11.17708006786406   10.48787253127537   12.27173415205134
H        11.62586255569665   11.42770802622794   12.56932629577133
C        10.02963256585336   15.25577749446705   11.80699112329469
C        11.26771278042546   14.63561896951201   11.92043411036022
H        11.34697508156116   13.56703084473743   11.77205498241983
C        12.38729732311881   15.38978348471323   12.21371724198082
H        13.34780107823578   14.90981445336131   12.31931203109247
C        12.27098514237803   16.75869707628928   12.39757584504526
H        13.14230925168994   17.34153305705054   12.65087177993670
C        11.03975082802415   17.37944873099916   12.26600093984514
H        10.95183764132666   18.44521701501458   12.40951016130971
C         9.91326326102013   16.63215287207091   11.97019421985745
H         8.94798765912224   17.11203555280800   11.88006185640852
C         7.40372718989771   14.61504829515044   12.96297227862042
C         7.73913875073556   15.43120266213261   14.03935190360076
H         8.69718177877791   15.92749889298288   14.08122293556414
C         6.84257751789170   15.58935026525962   15.08206420498145
H         7.11237014178465   16.21390814205110   15.91891715615229
C         5.61663196711620   14.94355842081648   15.05663500664276
H         4.92687599081048   15.06317795102371   15.87753567885306
C         5.27103681921746   14.15103925965601   13.97375149241213
H         4.31245425665841   13.65603451265328   13.94358667855168
C         6.15828219524173   13.99241017991330   12.92543109354252
H         5.88418808219128   13.37777964590606   12.07861624719966
C         7.50378644776009   15.04303613641118   10.19135299728416
H         8.02342020626754   15.03031834182329    9.23853663135716
H         7.28526962312501   16.07325747442263   10.47444942509877
H         6.56223640556830   14.49742311154866   10.12745256693374
C         8.60338651993471   12.03611394583202   10.08461632900742
H         7.75382460733457   12.36864341875569    9.48101766933445
H         8.55504451809940   10.95179283014024   10.20428458259718
C         9.89229261683669   12.42517733705954    9.37176666372811
H        10.76443683438156   11.97297276657503    9.86756347202924
H         9.86860242194495   12.08726393786156    8.32760193059775
C        11.05356237519037   14.40142685996159    8.78289286731164
H        10.99524892340862   15.47609810720594    8.94006405450830
H        11.01058502027185   14.18179106683805    7.71192802453596
H        11.99768828900337   14.02668345487156    9.18855104306233

