70
CSD_code = QUHPOA | q = 1 | S = 0 | Stoichiometry = C33H32AuClNP2(1+) | MND = 2
Au      -10.99232606365326   -3.71040048203149    8.41181872255439
Cl      -12.91431097850799   -4.81971278364227    8.88454406244163
P       -10.05440834894181   -2.39238466054534   11.08169356700346
P        -9.15387885263413   -2.43434971309131    8.35371884438779
N        -9.18758823212152   -1.61299648972463    9.88061783489965
C        -7.53386241041647   -3.23467516224182    8.29763128504087
C        -7.48943509860810   -4.44365844192517    7.60770697141273
H        -8.39776043369933   -4.82747604077752    7.15932177799167
C        -6.29819620254147   -5.13798708085610    7.50583942285448
H        -6.26349247981279   -6.07310224558648    6.96871208594955
C        -5.15268964081045   -4.63125353163093    8.09916139786962
H        -4.22230706727575   -5.17223024812100    8.02234450514637
C        -5.19581979573314   -3.43062828095433    8.79242245383669
H        -4.30065499749052   -3.04031871086901    9.25298710437582
C        -6.38210405456786   -2.72743512545927    8.89508595888352
H        -6.41275360139299   -1.79541012970087    9.44325013237417
C        -9.08060380232048   -1.09743966478318    7.13877951868259
C       -10.29836946098987   -0.62685329796206    6.64868806678401
H       -11.22021645552232   -1.08608836597899    6.98568963012013
C       -10.32027277317381    0.40118674998314    5.72529427054300
H       -11.26272438197173    0.76813904106011    5.34910597949725
C        -9.12839716126087    0.95063786680798    5.27655886334187
H        -9.14512213146498    1.75188445267316    4.55417179848232
C        -7.91560096950995    0.46181451123922    5.73767366934915
H        -6.99001574518062    0.87888265884234    5.37138178854000
C        -7.88380697527264   -0.56601596554537    6.66342527028515
H        -6.93720008973380   -0.95926165496621    7.00721060964027
C        -9.47992871808420   -4.10057698196314   11.16156816869695
C        -8.10358096566863   -4.28730816128414   11.27168631740541
H        -7.44001996319373   -3.43351012817609   11.30002094032717
C        -7.58995835471285   -5.56904331796546   11.33258154363085
H        -6.52322884503119   -5.71603942238948   11.40356307817081
C        -8.44693398389568   -6.65866311349493   11.30446687855473
H        -8.04440439358858   -7.65863321079246   11.35009534887691
C        -9.81786038648226   -6.46871034301644   11.22272607073936
H       -10.48490606912159   -7.31613277093707   11.20680199298827
C       -10.34465809312532   -5.19097927613000   11.14890762982270
H       -11.41198054874229   -5.05191099119321   11.05500195656349
C       -11.84702240879879   -2.21380439008430   11.03213803744710
C       -12.57543559130342   -2.87874652710335   12.01542258933410
H       -12.06475693589313   -3.45802109425538   12.77317180978882
C       -13.95613865091384   -2.80917072401742   11.99974827904376
H       -14.52720699506991   -3.34190339628749   12.74394204691247
C       -14.60355202802132   -2.07209410223273   11.02123489408649
H       -15.68135032659635   -2.03529273033437   11.00238864766657
C       -13.87442062534596   -1.38779099917921   10.06101009030154
H       -14.38227409394736   -0.81150277713684    9.30331578911537
C       -12.49503774976921   -1.46071325907397   10.05915672906450
H       -11.91870474590985   -0.94481398380317    9.30328359034844
C        -9.53060200254900   -1.64708317943601   12.65173431249364
H        -8.45183223137461   -1.73799576791718   12.77873029352322
H       -10.02680902841135   -2.20283105477956   13.44893393037847
H        -9.83520018548935   -0.60272706982922   12.71054830065382
C        -8.70194678565061   -0.23670320448337   10.03492248022266
H        -7.98597090203358   -0.04823472947554    9.23000620968108
H        -8.16905624308603   -0.13736857947240   10.98460373247715
C        -9.81228654456025    0.81140434437553    9.95569358679672
H       -10.32071496951275    0.71712707737113    8.99317577393196
H       -10.54130479288096    0.63655227578979   10.75239303080251
C        -9.21554637604843    2.18874967631648   10.07413963284934
C        -9.17183109834995    2.84685618642767   11.29492302217396
H        -9.60260331784921    2.38373695689982   12.17207341718048
C        -8.59496798590442    4.10122305631419   11.39495274968028
H        -8.57349591097839    4.60736272226609   12.34788321534701
C        -8.05106857571986    4.70558068231336   10.27483825876238
H        -7.60423070323009    5.68451731580855   10.35176234048459
C        -8.08808306803373    4.05331546539554    9.05363518008597
H        -7.66984946290729    4.52275858925812    8.17630047735087
C        -8.66630617959200    2.80074337077350    8.95435170062422
H        -8.70211495806774    2.29581036222765    7.99833033333139

