116
CSD_code = QUHTUK | q = 0 | S = 0 | Stoichiometry = C48H63CoN4 | MND = 3
Co       15.10074747235842    1.08087458114669    4.74138014336891
N        13.77862448911714    1.48581329831014    5.83375016838304
N        16.42503735012290    1.91881679029815    5.90351407180305
C        12.39264252321641    2.29733059120969    7.77611394781167
C        13.68756802270405    2.12827967522157    6.96938594911734
C        14.85786971288918    2.62808980436345    7.54397636145299
H        14.73523877652260    3.13434472105177    8.48131953402454
C        16.16266764511440    2.53202224691868    7.04545770788487
C        17.19822112145478    3.24479906114918    7.94839411323160
C        11.13091389412211    1.79895569049785    7.06710438584762
H        10.28605729732758    1.88289284605679    7.74947143849483
H        11.21546330650771    0.75824462668451    6.76966366840179
H        10.90682986661027    2.39272276899720    6.18583388581868
C        12.55347219689291    1.48706164009273    9.07250074947193
H        11.65255368850413    1.56718334732091    9.67786565625549
H        13.39349544650744    1.84148349230455    9.66263026159612
H        12.72289557579045    0.43696238699823    8.84351484508800
C        12.16816746376340    3.77857816651403    8.11460738546641
H        11.23272361252809    3.89078273453889    8.65933305317819
H        12.10609422916763    4.37439259934843    7.20638719974746
H        12.96430415585409    4.18228678397993    8.73257517520628
C        18.67290910226203    3.16645068209933    7.54277071127252
H        19.25221144164900    3.76443916435374    8.24656485419838
H        18.84846572905582    3.56143878889947    6.54976478157555
H        19.05051518077896    2.15097202725045    7.58154024804821
C        17.12339062719053    2.66268081496390    9.37138991533650
H        17.89170750768108    3.11887406074152    9.99259248498253
H        17.29778611329618    1.58961652437362    9.34797693714091
H        16.16594618212580    2.84079800509939    9.85044177981865
C        16.83064999648245    4.73940923854588    7.96647511327736
H        17.53957180061802    5.28802813789708    8.58363243251402
H        15.83486999069847    4.91481051094587    8.36156096560270
H        16.86810305713889    5.14369344282598    6.95744076006090
C        12.84951867998158    1.03126369680495    4.90080220201560
C        12.61794704167095   -0.35652400945111    4.74365137261502
C        11.67450728562549   -0.77614165265314    3.81363157191382
H        11.47110431319503   -1.82972697736603    3.70099942806539
C        10.98691717884023    0.12944116801377    3.03301944327030
H        10.24034125838930   -0.21692673300184    2.33408149640577
C        11.26298094517626    1.48343420049305    3.13546011536887
H        10.74564607582151    2.17578553601141    2.48998796876068
C        12.18222119098793    1.95493536811597    4.05300731300090
C        13.31717304259082   -1.38484738263403    5.60747739886208
H        14.12001529405140   -0.88470469167730    6.16762799467735
C        13.94811225035122   -2.48680834370420    4.75199240717925
H        14.57428236704129   -2.06030990483825    3.97216739682144
H        13.18810234498631   -3.09906522580195    4.27284016420892
H        14.56192910530145   -3.13545381189446    5.37256769671066
C        12.34371043890660   -2.00483334142410    6.61381186421841
H        11.94139959882750   -1.25180316851239    7.28784852379656
H        12.85548244817700   -2.75690141628108    7.21063171717558
H        11.51158602142661   -2.48131314157613    6.09974178177435
C        12.54406766364730    3.42067591245421    4.11912966334052
H        12.90413314679384    3.64673243614710    5.12768822547493
C        13.70702424197908    3.65665763897886    3.15045384908302
H        14.53436188636535    2.98382229197194    3.40749283413322
H        14.05858771070080    4.68376224620491    3.21519880764521
H        13.39956253305313    3.45353936009347    2.12646279086897
C        11.38146681579840    4.36265211201640    3.80957555067814
H        10.50383761330380    4.10941026809078    4.40160806613352
H        11.11122397560825    4.32727246123705    2.75705552148432
H        11.66873114344405    5.38575578174878    4.04376698107615
C        17.72149868845563    1.65648822872569    5.40383143454344
C        18.28120575845888    2.46900711096408    4.40200934078304
C        19.52720710576112    2.14354021801340    3.88789022423145
H        19.96511098062118    2.76328507455802    3.12011224805471
C        20.22178992775490    1.03850459690767    4.33819929516699
H        21.18960201681111    0.79933794201214    3.92349573796044
C        19.66326881844680    0.23305561103117    5.31256432115148
H        20.20294545117583   -0.63920856262821    5.64898297356185
C        18.42542383448942    0.52733194303716    5.86266671479406
C        17.54432511203741    3.67286257634785    3.85791996285813
H        16.58820266263966    3.75271040886711    4.38522608568020
C        17.26095330078574    3.48884729807886    2.36438050238712
H        16.73039824288602    2.55656578922403    2.19228025619600
H        18.18703916787383    3.46338356429204    1.79574244038952
H        16.65249154723960    4.31021382611779    1.99197727830553
C        18.32341947971796    4.97272838924084    4.07536034262681
H        18.50240467812860    5.15571627842999    5.13224532792865
H        17.75891766936025    5.81316276029506    3.67587518811756
H        19.28538829017211    4.93850796089089    3.56974919035475
C        17.81829734253001   -0.39663007108635    6.89572106508209
H        16.99720582851340    0.13029701786770    7.39080979503649
C        17.22811473594233   -1.61394267065362    6.18022829056701
H        16.48741487636045   -1.28171159366918    5.45408519297548
H        16.74732176302239   -2.28057942332134    6.89336443170436
H        18.00456762460901   -2.16620350007553    5.65506254783159
C        18.81322454587976   -0.83872717732940    7.97010166558163
H        18.28774918397361   -1.36878893164387    8.76249345330486
H        19.32189629851809    0.01674773479310    8.40987459803637
H        19.56438128996182   -1.51020709843766    7.56221092051094
N        15.99218442947581    0.46926943721865    3.45325125081775
N        16.33815811132225   -0.33890627250883    2.68565866561100
C        16.42167417845906   -1.21518547673302    1.74854997026579
C        15.17296995321033   -1.72850453349932    1.18375760019223
C        14.03526681356034   -0.91851557402802    1.13037234036998
H        14.08194146154193    0.09818879138549    1.49846798598111
C        12.85540172725413   -1.39681900236661    0.59852111543967
H        11.99414045029301   -0.74749221566324    0.54636411330184
C        12.77515225129396   -2.69769096286612    0.12945852682312
H        11.85125129719366   -3.07012959575152   -0.28786621513592
C        13.88814205402381   -3.52008118038921    0.20671200309541
H        13.82858401546555   -4.54223103941193   -0.13926611179893
C        15.07471834266242   -3.04626979892561    0.72919478051301
H        15.92953279182352   -3.70126102061281    0.80774581948618
C        17.74673507048101   -1.66045122167808    1.34080037964998
C        18.82891066501585   -1.51343087161980    2.21508269321070
H        18.66556379171223   -1.07760701438464    3.19031346258500
C        20.09439234691238   -1.91574800487796    1.84238397620166
H        20.91644768879445   -1.79763374804329    2.53360894853610
C        20.31331633581245   -2.47356024521868    0.59264829254775
H        21.30318889275793   -2.79541894199907    0.30443928074558
C        19.25269848556075   -2.60444781256341   -0.28945320918639
H        19.41817276515440   -3.02039420656607   -1.27327301366885
C        17.98389163856261   -2.19764715846552    0.07314087589658
H        17.17221003134498   -2.27593755990936   -0.63518518938731

