29
CSD_code = QUHTUI | q = 0 | S = 0 | Stoichiometry = C14H10Br2N2Pd | MND = 4
Pd        2.96645944401490    0.00068897715579    8.97091507161608
Br        0.93158421464547    0.51980721041018    7.71015217853576
N         3.21037935896891    1.80069350515977    9.32661302400507
C         3.37853941884291    2.91933816475588    9.55996957388556
C         3.58501195947265    4.27441367968356    9.84616178440975
C         4.67458438298561    4.65518674081217   10.63690321821334
C         4.87059975170173    5.99290397495232   10.91593568990582
C         3.99593515190142    6.94700102222848   10.41654354446747
C         2.91642706026199    6.56718772737357    9.63221249165026
C         2.70196701434148    5.23477910179932    9.34136418306972
H         5.34714115392107    3.90192225196823   11.01861189778682
H         5.70894115686259    6.29371944259510   11.52550277320144
H         4.15626578886562    7.99096914043374   10.63947556826312
H         2.23924793143296    7.31360999261905    9.24601030870377
H         1.86590790595435    4.92510164564671    8.73265057268255
Br        5.00145264665887   -0.51812974640473   10.23171189498454
N         2.72257545735599   -1.79945552297044    8.61581426149141
C         2.55280066178266   -2.91815351757688    8.38417500494294
C         2.34600875761595   -4.27387443923985    8.10132605223259
C         1.25605349072725   -4.65692387400328    7.31222533420992
C         1.05976756791278   -5.99547363638299    7.03734974811916
C         1.93450267633732   -6.94814271811545    7.53932282582248
C         3.01441580175957   -6.56606209189379    8.32199188941730
C         3.22916929199447   -5.23280635827304    8.60866968182818
H         4.06548128021727   -4.92134612377192    9.21612416623292
H         3.69182157865162   -7.31135811576988    8.70999399420010
H         1.77397199765704   -7.99276979608819    7.31965210071503
H         0.22118165179290   -6.29805322522628    6.42899147823148
H         0.58330544536519   -3.90477341187736    6.92862968717156

