84
CSD_code = QUHVIZ | q = 0 | S = 0 | Stoichiometry = C30H47N4O2Ta | MND = 7
Ta        3.79037739789595    1.48486134058945   12.92248403138335
O         2.50521505128757   -0.20547331835113   12.28654599586865
O         3.16068643651256    2.21165741921981   10.87888745359779
N         4.57121036514090   -0.21663036175747   11.59920099512182
N         2.02035519840012    2.89812076608329   12.59747328725266
C         3.40901798563767   -0.79310819907170   11.61213092782794
C         2.16204174526361    2.86513449860266   11.30978025536892
N         5.38093214697623    2.66251769084745   12.90486846914087
C         5.74407030146101   -0.53639867448893   10.90999969701887
C         1.09701798032166    3.54216483245628   13.41479836631403
C         5.91835475368027   -0.19307303337378    9.56132583996587
N         3.42429011071577    1.54756628983819   14.79618160744823
C         1.41456047931462    4.81016732264739   13.92465158727716
C         3.00363735206025   -2.12341300314101   10.96922731040122
C        -0.05165012009559    2.86921722984672   13.85385867602998
C         1.26719806016795    3.51152305629805   10.24856990889018
C         6.81457545171293   -1.09062863965827   11.63081758249676
C         8.01884380692461   -1.32877678202821   10.99037221459220
H         8.83648815467137   -1.76459999779505   11.54686559058363
C         6.64570168892972   -1.39904391439487   13.08569175328537
H         5.73262418784188   -1.96543550568665   13.26100740639220
H         6.55458909122460   -0.46869686955796   13.64752498760759
H         7.49460037792698   -1.96480921017332   13.46207116922280
C         7.14138824294154   -0.44343527928913    8.95360542202568
H         7.26977372020539   -0.18242522006998    7.91240339012835
C         4.81726223904286    0.43259182601033    8.75575643692487
H         4.07674436473810    0.89496750667470    9.40208341927928
H         4.31853702428731   -0.31715767798717    8.13814697120338
H         5.22533359521209    1.18895243770457    8.08659448786565
C        -0.90009525606907    3.50619158369949   14.74642703904082
H        -1.79218521882958    2.99663167252936   15.08201083221233
C        -0.33825922127052    1.48166895863338   13.36685854189484
H        -1.06987887336412    0.99435769274411   14.00756733724416
H         0.57774548998348    0.89067297052091   13.34805041292763
H        -0.73835366128211    1.50317629759721   12.35159501923964
C         2.17497133926993    4.38685607871375    9.37345930781854
H         3.01605971213628    3.80414607597256    9.00587036487391
H         2.56300696546920    5.22681354069438    9.94702338533027
H         1.61636496131064    4.77506060695448    8.52406470398378
C        -0.61619042696225    4.77592392149066   15.21673086431502
H        -1.28940191114300    5.25983974963043   15.90847603310050
C         0.11633969609675    4.35761150725659   10.78640079973837
H        -0.43642311301708    4.77503566633746    9.94545600725469
H         0.47673476056864    5.18152150647057   11.39603585677084
H        -0.57232989191573    3.76618735446578   11.38245124396984
C         0.54320161794752    5.41624942521249   14.81500457277070
H         0.77911047756353    6.39669594910544   15.20382970852213
C         4.20350440233910    0.37422706096443   14.75268346414172
H         3.63304673125977   -0.52321899339500   15.03063110563453
H         5.10425554472415    0.44082049105182   15.37740934754653
C         6.16451371229400    2.85276938987607   11.70330700025681
H         5.60143319291336    2.50922303081908   10.83896293153805
H         7.10593126513632    2.28870310337973   11.75494417247412
H         6.41346027404964    3.91227023354936   11.56034845385036
C         0.70420972332818    2.35879743962987    9.40454575192365
H         1.51609341827279    1.75816961829894    9.00127321582995
H         0.11286884736069    2.75032518193123    8.57893363834570
H         0.07092459692900    1.71466946774455   10.01196630256061
C         2.69965297585602    5.46320129047234   13.51447183496007
H         3.51999480042897    4.74888894737561   13.61191717041555
H         2.90092213397872    6.33733444545483   14.12933699507306
H         2.66004078165162    5.77753395813987   12.47089744517057
C         6.06594498792841    3.26489341821991   14.02815313793877
H         5.46436032249785    3.13898972220853   14.92547461429165
H         6.23656615392174    4.33635781996120   13.86079564584769
H         7.04576606331005    2.79386979396714   14.18476796917094
C         2.75565474441572    1.95726997173394   16.00221238248248
H         2.22492480579720    2.89340068524962   15.83023605850128
H         3.47436282594660    2.09731891457546   16.81977898942643
H         2.03296112265926    1.19335599708967   16.31791577074853
C         1.88836142313696   -1.81393308240462    9.96210424773972
H         1.08511024231294   -1.27084710733085   10.45461781646467
H         1.48807964419889   -2.73768085186240    9.54855009111938
H         2.26739598322150   -1.20317660150311    9.14555549382268
C         2.43575760907870   -2.98788109877710   12.10537229906337
H         1.65381288429693   -2.44729093213173   12.63231892547156
H         3.21935306190846   -3.24039022405349   12.81743809342801
H         2.02027890110089   -3.90948829257264   11.70263350805847
C         8.18669240892409   -1.01325852355964    9.65360001426627
H         9.12969418255737   -1.20398011666709    9.16325247534326
C         4.12926256194888   -2.89339794650387   10.28354985653279
H         3.74240133027626   -3.85421688862451    9.94592179398912
H         4.95272633474402   -3.08090469706517   10.96760215708817
H         4.51518536843391   -2.36320171295002    9.41888255801291

