58
CSD_code = QUHVUK | q = 0 | S = 0 | Stoichiometry = C23H24BN8ORe | MND = 6
Re        1.28324381867132    4.28903563359264    7.47866944556538
O         1.98776540382133    4.02176485644825    8.99020915345145
N         2.40519520162269    3.37347689815741    6.22134567035089
N         2.25002116009947    5.74424117319400    6.69312887920473
N        -0.29380074902540    4.65126129916665    5.75978509487873
N        -1.60233621489241    4.50227338597743    5.98227444505049
N        -0.12028407166402    2.63573301362076    7.73583339986380
N        -1.44706851738606    2.78096072487736    7.74453006866549
N        -0.30997894836940    5.50151031072194    8.42392125537130
N        -1.60689161703076    5.19480552316955    8.34184992080502
C         3.60502019529802    3.99673114096734    5.70960551251275
C         3.42920495953815    5.53917107317823    5.87838736644780
C         3.91327743850095    3.65587605915031    4.27194676576729
C         2.92052809039480    3.22867963766352    3.40013635346049
C         3.21687561399780    2.95852307758708    2.07522102082626
C         4.50921806743250    3.11486088571206    1.60581124329838
C         5.50567915491559    3.54007894710090    2.46941956655482
C         5.20994917804060    3.80770381670949    3.79339485266641
C         4.65854822022340    6.13745381506284    6.52203765249376
C         5.58757095686426    6.85577309528415    5.78417894592070
C         6.71695823456144    7.37090576103828    6.39834291881170
C         6.91979666889695    7.17541524952349    7.75327603166267
C         5.99153773351485    6.46090954724971    8.49440836187594
C         4.86614653221138    5.94031252797822    7.88327420920118
C        -0.14240545467092    5.04425073990132    4.50193125787636
C        -1.38787587457573    5.14903471409754    3.88671026186154
C        -2.28877092351872    4.79499828949082    4.87070075687960
C         0.15479106199316    1.38143559435070    8.06366066960429
C        -1.03014401311622    0.68563291639629    8.29026897321005
C        -2.02413334364353    1.61798586362963    8.07284267494566
C        -0.17900824324265    6.49129883160177    9.29429751474799
C        -1.43045228894731    6.84373874087626    9.79491320523209
C        -2.30938215039452    5.99279072104274    9.15678842978078
B        -2.11473815009758    4.11323435547897    7.37701085390238
H         2.39470192101345    2.38088067620005    5.99667903878384
H         2.07066406958672    6.73860863987016    6.81388862457829
H         4.46077968173610    3.68350080504746    6.33344644373114
H         3.28420064095849    6.00033620500272    4.88614747961140
H         1.91096218282539    3.10663085811546    3.76497686592940
H         2.43541423456156    2.62509838655714    1.40748708611582
H         4.74052913330359    2.90384629451120    0.57206933712321
H         6.51661783865545    3.66272663862474    2.10881894386980
H         5.98590617853063    4.14010018902464    4.46792468045009
H         5.42904994962018    7.00912478665409    4.72553515651184
H         7.43843933420983    7.92683565404708    5.81716686328447
H         7.80009673925688    7.57987537355664    8.23126471403747
H         6.14821438392617    6.30761499856205    9.55190349571460
H         4.13187448277226    5.37605451544406    8.44355268655351
H         0.83136748636470    5.23725743213521    4.09588316208528
H        -1.59740633500367    5.44013667591599    2.87818840645218
H        -3.35789104818592    4.73492233069772    4.84794649330893
H         1.17082697108465    1.04535950432923    8.13524582328087
H        -1.14422236530074   -0.34039025926145    8.57227680847835
H        -3.08958245835866    1.52394363482389    8.12998378310583
H         0.79022765116044    6.88794611230099    9.52546628177632
H        -1.65897633954225    7.60274282770963   10.51388928100747
H        -3.37465165919017    5.90949745864608    9.23195257498468
H        -3.29359980400907    4.02779204148629    7.40069323647574

