61
CSD_code = QUHYIC | q = 0 | S = 0 | Stoichiometry = C27H29BrCuN2P | MND = 4
Cu        0.75664867550644   13.37393329536468    1.64922319934368
Br       -0.47199784087361   13.72666846424261    3.53667430853934
P         2.16658980197377   11.60071373894461    1.71355906766921
N        -0.42976391542319   13.61459670084517    0.02031243100184
N         1.88409456026866   14.72548186035457    0.66165926593505
C        -1.70037736358205   13.24462047428324   -0.04902573803310
H        -1.99841088539807   12.45873278469238    0.63278603264954
C        -2.61530167819981   13.81106333351813   -0.92236251772075
C        -4.04320495521191   13.37511647928097   -0.94145774987398
H        -4.44556688141978   13.40697464667016   -1.95190851780092
H        -4.63728169471568   14.04578656840563   -0.32012802773488
H        -4.14752074540448   12.36896665220702   -0.54367355787108
C        -2.14845527714270   14.82117700972453   -1.76692399473027
H        -2.82398687158969   15.29574806523123   -2.46382358795448
C        -0.82941901505052   15.21920708069651   -1.69525390764735
H        -0.46054336237718   16.01994854548777   -2.31698507984127
C         0.01592396193795   14.59850939770855   -0.77729578765664
C         1.40812274295631   14.97764241181030   -0.56885472147603
C         2.22119606745923   15.53689616130219   -1.55367085720658
H         1.83038364998667   15.71366018189174   -2.54360532727271
C         3.53608511240708   15.82687122066456   -1.25371480321248
H         4.18728200323449   16.24964362072935   -2.00505309061329
C         4.02700288655057   15.56862602435864    0.02953376262626
C         5.43725101340994   15.88527320943449    0.40773356548361
H         5.53363627103046   16.94762401577948    0.63350193932446
H         6.11518690022110   15.65526266869229   -0.41193804620064
H         5.73491244365166   15.32017168256222    1.28820415785783
C         3.14415661672729   15.02304635802585    0.94627670046858
H         3.45902222489988   14.81926990332756    1.96170004263019
C         3.77757045078278   12.09705761846473    2.39809024194329
C         5.00321227241126   12.05129249248405    1.74507006464501
H         5.08738796691901   11.62959206410526    0.75425633150346
C         6.13669368000308   12.54496654746062    2.36987192160033
H         7.08811566689563   12.50376780507925    1.85830839745919
C         6.05747899611480   13.08913537087547    3.64044618412791
H         6.94584502317439   13.47479497029954    4.11879767398278
C         4.83614025873316   13.14085998974478    4.29635713754934
H         4.76856741372359   13.56776398611142    5.28586148050293
C         3.70290048943516   12.65349781941604    3.67700423330485
H         2.74110390622323   12.70442656983618    4.17321434224287
C         1.78131888105673   10.22203977651148    2.84404915492114
C         0.48932779607915   10.10899607493462    3.34343253261729
H        -0.25483492654997   10.84618157789233    3.07739922464600
C         0.16759651463526    9.07218051439106    4.20170200717959
H        -0.83423849728359    8.99454039980594    4.59591089663780
C         1.13245112604068    8.14665453050612    4.56022218181085
H         0.88360568978677    7.33815781241337    5.23187595151576
C         2.42367900679262    8.25977614124249    4.06693641523733
H         3.17730747885836    7.54040041969588    4.35385856846295
C         2.75234943402426    9.29521169868044    3.21359917930618
H         3.76247628100340    9.39262641985674    2.83841160650845
C         2.55689632003439   10.68070262642858    0.13584824648111
H         3.45117105227058   10.06338597846446    0.28381728887969
C         1.36495159770268    9.78828275256621   -0.19922282808332
H         0.45074002517282   10.38276732221454   -0.22579160959110
H         1.24116509679821    9.00319156716788    0.54477670446362
H         1.50003838920532    9.32339922216290   -1.17486447993267
C         2.78464619483022   11.69767451347992   -0.98016633593871
H         3.07686307311239   11.19730028086286   -1.90285564171060
H         3.55850401756459   12.41894668312572   -0.71842659586259
H         1.86290487858977   12.24799589751981   -1.16767963707353

