65
CSD_code = QUJBUU | q = 0 | S = 0 | Stoichiometry = C27H32N2O2PdS | MND = 4
Pd        6.19026753319728    2.17852018456249    1.42949053105021
S         8.21858890638924    1.67533853473520    2.16556966514139
O         4.28910201365558    2.13253444164085    0.78565247521477
C         6.09472919586848   -1.46910636603220    3.40396260070726
H         5.06045119307012   -1.77159064974784    3.38361994469297
C         2.01733724776378    0.02791300909632    3.55419883579862
C         8.18850949975287    4.01579278147436   -1.93536405735506
H         9.07798313502184    3.84137451252681   -2.52113279830526
N         5.55360572033980    0.82318638102044    2.68644951743037
N         6.86668582286328    3.45712135097883   -0.04364224676428
C         3.52303528074639    1.42509245010451    1.62847333564159
C         8.41679097160041   -2.02015951249491    3.80439652876890
H         9.15850332550692   -2.72801246582605    4.13767403609065
C         2.12555702526261    1.35965758806041    1.50419271442807
C         5.98899754384442    4.40090235146942   -0.40935115967541
H         5.11981071829321    4.51042483479673    0.23273375466540
C         4.14869855141483    0.72336096100341    2.68210887580143
C         1.41769756846254    0.65031511560125    2.46788289653720
H         0.34853672595711    0.60543295198990    2.37532495199920
C         1.70112440469286    3.58595583786044    0.49369339993887
H         1.28281342850987    3.95980509970588    1.42600613381892
H         1.25271125245227    4.13090063400809   -0.33516082571838
H         2.77189303049345    3.76544914199682    0.49536856253695
C         6.15381955088762    5.18463941011405   -1.53376136006182
H         5.41872535110096    5.93071293346464   -1.78731914460187
C         1.43045398023402    2.08173713202239    0.35708695590719
C         1.22676222121470   -0.69810982085926    4.63454669410132
C         6.42919343712140   -0.15314572168078    2.99664892209040
C         8.78882630200274   -0.77282268714871    3.34400083931188
H         9.82461247113294   -0.47039915883163    3.29622963795811
C         7.96943115005323    3.26367938228602   -0.78330717649272
C         7.06431652486618   -2.35945265275279    3.79554395243419
H         6.76764818253515   -3.35124981740898    4.10558830659290
C         2.00158688707433    1.57255535321985   -0.97288774763959
H         3.07537805890200    1.73350063225409   -1.00253671338579
H         1.54407902901751    2.09868883282962   -1.80892421729263
H         1.80511440525169    0.50785392197157   -1.08189202841134
C         7.27761002783516    4.98233496445575   -2.32248465887421
H         7.44263983981962    5.56555483803352   -3.21511830406778
C         9.04994559084937    2.29340516613370   -0.35860701311670
H         9.58318052210212    1.96971469327841   -1.25632481220174
H         9.76535614464469    2.85176182508739    0.26102586796459
C         7.82294238879628    0.11749473888596    2.92080756426055
C         3.40263086652174    0.07878348893477    3.65514623741820
H         3.90922646662101   -0.34809270029681    4.50628228988826
C         8.62966903215983    1.07601586803583    0.45831320380562
H         9.45104624338628    0.36501040025842    0.52740962969316
H         7.72701042094180    0.58325295991206    0.06272490828213
C        -0.08548052690373    1.86719402313251    0.33633215700476
H        -0.33132974468431    0.81218231506285    0.23955995678451
H        -0.50872893939876    2.39122660764304   -0.51900261540506
H        -0.55285191878020    2.26243919204169    1.23525075693931
C         1.46425043046502   -0.00401466047898    5.98298986612361
H         1.13691868924099    1.03218059968166    5.93237221536487
H         2.51680702063618   -0.01422135577052    6.25167295999117
H         0.90530099345462   -0.50648509262582    6.77039187309152
O         9.45893555737570    2.24518903736372    2.68005961557463
C         1.70123770016911   -2.15654232366933    4.71388195618650
H         1.11761525938176   -2.70402505504309    5.45173117027451
H         2.74790276646753   -2.21684806867766    4.99898310001585
H         1.58045418818732   -2.64262945361678    3.74782306309811
C        -0.28030208298338   -0.70657806055494    4.36402078259176
H        -0.50549528821068   -1.20568123061951    3.42448231122275
H        -0.67775355682954    0.30503974487952    4.33505596193274
H        -0.78941573782324   -1.24445936937301    5.16195536316212

