53
CSD_code = QUJCAA | q = 1 | S = 0 | Stoichiometry = C22H20CuN8S2(1+) | MND = 4
Cu        1.14726614857968    5.93043219840551    3.56517614348199
S         1.51674642335853    3.61518172804410    3.70700566702685
S         2.80920124333638    7.49829873154206    3.18988328345974
N         1.99981936467682    4.20365596062831    6.32257745314859
N         0.71300958800707    6.05434031890269    5.57129297353818
N         2.80200021274579    2.23722774855488    5.45806172058555
N         3.33827406757412    2.48863040554356    7.71849771644769
N         1.81536544673771    7.49373352951902    0.64347005601804
N         0.15880271314352    6.24015461204270    1.80803088096490
N         3.77343111854406    8.59895245536962    1.08167916931488
N         3.15436585580486    8.76664011446069   -1.16567628900066
C         2.11554039299762    3.39995713723074    5.25024126007340
C         1.38078026658202    5.41488993936194    6.53751046999160
C         0.09906560625173    7.20311657684176    5.87734598753393
C         0.13308725961199    7.77441401347382    7.12953032659715
C         0.84590699247595    7.12468625536709    8.13355650041318
C         1.47115925734533    5.93422342173938    7.83690832170572
C         3.38661436889973    1.74709867791523    6.61279277629888
C         3.89692966302949    2.02792304134390    8.82970898966251
C         4.53379726163532    0.80489107012168    8.90081122425311
C         4.58692625263380    0.02586004476760    7.74913439631266
C         4.00961093154791    0.49511593427118    6.58654194383306
C         2.73940818594980    7.84312689073001    1.55644006694440
C         0.64870060649610    6.76144829013880    0.67952140582416
C        -0.99286672068537    5.56269987929818    1.75168566075509
C        -1.70316566082320    5.36681443708251    0.58861652212298
C        -1.19738366307870    5.90241188003451   -0.59258592367936
C        -0.01468197175603    6.60585768482382   -0.54701616785785
C         4.01819142381653    9.06819149178785   -0.19752400115808
C         3.38070615192144    9.21308965021425   -2.39425296714236
C         4.47864078452159    9.98233360788455   -2.72496380870614
C         5.38486809390519   10.29903277858281   -1.71773930446203
C         5.15950557854030    9.84056218857110   -0.43538162133784
H         2.48599468585166    3.78197688923367    7.15306217664283
H         2.86294233685585    1.64571398337713    4.63806444825645
H         2.07668964033763    7.87629010063183   -0.30133036460081
H         4.45271855623477    8.85119925855036    1.78943391378495
H        -0.44337657279012    7.66747094313047    5.06620383981364
H        -0.38321322992921    8.69994740896997    7.32138419966773
H         0.90101238791312    7.53990889521708    9.12767259722311
H         2.02400493529728    5.39135646024389    8.58731465401913
H         3.82035353498385    2.68089406812790    9.68784564472183
H         4.97478114730767    0.46748243901169    9.82354881508026
H         5.07399451391232   -0.93681038636343    7.76264789183101
H         4.03182419128273   -0.08308477580312    5.67645985279102
H        -1.34309532251125    5.16694354483761    2.69394522695652
H        -2.62686545743953    4.81327533509080    0.60072707139902
H        -1.72172822147774    5.77231852186649   -1.52632661293924
H         0.40986159739799    7.04141258012344   -1.43791945491248
H         2.63978340198869    8.93290447359086   -3.12980415515009
H         4.62515729915142   10.32544192710056   -3.73521473707065
H         6.25603596121816   10.89745773087977   -1.93456183366817
H         5.84060137009746   10.06720790758365    0.36946599320046

