90
CSD_code = QUJCOO | q = 0 | S = 0 | Stoichiometry = C45H37ClN2O2P2Ru | MND = 6
Ru       13.03572176297480   17.88374699633665    8.49251743738499
Cl       14.76178984547771   17.88376648071999    6.87923435982592
P        12.99848447686723   15.57387625138358    8.25929529104140
C        14.30470759994171   14.67185668331246    9.15285302456882
C        14.08904492607487   13.52867241390473    9.91441066747432
H        13.09140513179480   13.12522003749557   10.02317468920958
C        15.15581798755576   12.90265104059139   10.53566167913112
H        14.98296452321470   12.01664458002123   11.13002835981091
C        16.43872661388605   13.40459710614260   10.39488562387611
H        17.26630287749404   12.91203513290967   10.88427053540054
C        16.65902453255315   14.53509457715776    9.62414961809219
H        17.65920341517718   14.92495597270824    9.50766684129150
C        15.59792861604073   15.16830046518059    9.00485105926441
H        15.76016725846971   16.05040859490281    8.39598008908177
C        13.13515499593837   14.82602761437757    6.60341862325900
C        13.53152636179674   13.49736411907930    6.46791018959394
H        13.77581450768945   12.91204061982202    7.34356578156240
C        13.61772122325574   12.92945455945248    5.21071667285719
H        13.92667904765709   11.89892914742492    5.10836212789258
C        13.31536559209395   13.67877487084354    4.08450961000863
H        13.39145536688630   13.23142942435034    3.10381439227879
C        12.91837024287284   14.99837657112271    4.21784426065437
H        12.68370988527864   15.58368944489016    3.34062297190502
C        12.82541174568033   15.57357875353195    5.47288815571720
H        12.50742043974955   16.59995888447792    5.59070355467351
C        11.45462509059121   14.85639884410893    8.89932888554543
C        11.22829054827989   14.92529217708334   10.27341835330631
H        12.01544110025526   15.29596262680843   10.91861303170788
C        10.01442953938531   14.53146500670761   10.80208812811681
H         9.84573264595647   14.59231979734658   11.86773143762157
C         9.01168228776499   14.07092436554538    9.96202835879350
H         8.05981285340151   13.76780742000544   10.37353425105404
C         9.23119353424196   13.99815267893554    8.59628019593720
H         8.45047823334634   13.63537808511436    7.94268347271308
C        10.44662396970460   14.39206593122083    8.06265989851967
H        10.61742374465621   14.34294930598384    6.99570530767941
N        11.28484047630598   17.88373901807723    9.63942215166704
C        10.19105210572076   17.88377543165020    8.91483094262917
N         9.07435571982459   17.88380239041161    9.68583492550373
H         8.12580175559781   17.88382036493707    9.35178922166279
C         9.48173987196163   17.88376660599184   10.99844822382194
C         8.78606099036999   17.88375443267828   12.19552528081952
H         7.70714941573516   17.88376670307887   12.21828030633662
C         9.53592713948322   17.88371942004427   13.35538109981698
H         9.03251425184154   17.88370502362111   14.31032896063037
C        10.93157371328051   17.88370817794670   13.32301738905702
H        11.47482119076376   17.88370462948929   14.25574688856639
C        11.63060255905974   17.88371297457024   12.13348457593846
H        12.70887444361397   17.88370922869807   12.10726563151738
C        10.89214538433897   17.88373208073609   10.95584837101713
C        10.24920240343755   17.88377798216522    7.42258779273867
H         9.68476594711713   16.99004116877212    7.06377606286247
O        11.51856810289805   17.88374432627535    6.96212514366769
C        14.23360048963366   17.88374876621486    9.87626170043962
O        14.96718098943222   17.88381961559487   10.76535882691796
P        12.99848294583424   20.19356667032798    8.25929624347062
C        14.30473580104377   21.09560924227836    9.15278414825498
C        14.08910754096948   22.23883338600888    9.91429216637308
H        13.09147160530255   22.64229068675250   10.02308321451825
C        15.15590559329467   22.86486663620538   10.53548548098418
H        14.98308577572337   23.75092880032065   11.12978010361992
C        16.43880195632901   22.36288833276977   10.39470866054308
H        17.26640533460292   22.85549275882848   10.88400814782681
C        16.65906257697615   21.23234121261653    9.62403699127393
H        17.65923147797551   20.84245465271854    9.50755277089042
C        15.59794428803245   20.59913070129905    9.00478591544973
H        15.76015141237344   19.71697574284681    8.39597420662986
C        13.13507120840044   20.94143058425453    6.60342215645648
C        13.53134879103633   22.27012422625619    6.46791862520250
H        13.77563702458407   22.85544675022239    7.34357301529001
C        13.61747963710199   22.83805009536446    5.21072811757432
H        13.92636110703893   23.86859885737405    5.10837781166767
C        13.31514777367475   22.08872137163728    4.08451826579969
H        13.39115296478470   22.53609369851782    3.10382830298503
C        12.91826934074860   20.76908516613798    4.21784660169963
H        12.68362381311315   20.18376514172081    3.34062745043386
C        12.82538118626193   20.19386322470503    5.47288720853100
H        12.50747745295806   19.16745676705010    5.59069278410072
C        11.45466491452335   20.91105417453294    8.89941544827111
C        11.22842254139304   20.84215614376194   10.27351971933802
H        12.01561211311733   20.47147334917155   10.91865943262372
C        10.01459498157115   21.23597633273686   10.80227190567782
H         9.84597096964356   21.17512134032074   11.86792642843396
C         9.01179228641919   21.69652404095890    9.96228131363888
H         8.05995541157202   21.99965307297540   10.37385424168244
C         9.23121005508287   21.76929482963552    8.59651822813730
H         8.45045540692303   22.13208499299772    7.94297711018565
C        10.44660534198868   21.37538284869278    8.06281409197015
H        10.61733450455832   21.42450063568138    6.99584768115478
H         9.68481539063559   18.77754861036343    7.06378557684938

