78
CSD_code = QUJJAG | q = 0 | S = 0 | Stoichiometry = C30H38BCl4NP3Re | MND = 6
Re        6.15305692103519    4.85163493140284    6.13011164540235
N         6.17943711579935    3.69013468711244    7.43153163322525
B         6.06483468324899    2.89693156190447    8.63542857332975
C         7.43074606105128    2.31831330308050    9.24767265647464
C         7.49136917632067    1.83808612841566   10.55216748123384
H         6.60752284087975    1.87810839324275   11.17328983490476
C         8.66596157309920    1.31408725414562   11.06216112263617
H         8.69195797233970    0.94453380061603   12.07753294438845
C         9.80336766238910    1.26223609591793   10.27522756989427
H        10.72106775239854    0.85309771715936   10.67370741691306
C         9.75882951267235    1.73743944288513    8.97566679117566
H        10.64283002719116    1.70240959335267    8.35457248793100
C         8.58277163551490    2.25845515626989    8.46776116752326
H         8.54627539455642    2.63588623715726    7.45621590490756
Cl        5.25743320998261    4.13283620672680    9.82069276064503
Cl        4.87803967310240    1.49458029909655    8.27785559474468
Cl        5.95400475955543    6.40800457712440    4.52936430884471
Cl        8.44958184902516    4.62753845689493    5.54665216520030
P         5.95223913179818    3.07333573843178    4.43780692521482
C         4.33667622085645    2.39266471950752    3.96759223818348
C         3.67491851295658    1.57995888640943    4.88595819128934
H         4.13625718452232    1.36405264137872    5.83945198923170
C         2.43066120273790    1.05952054897478    4.58027150622117
H         1.92689561776499    0.42635733030946    5.29514804425338
C         1.83275016174695    1.35014942079845    3.36378991918123
H         0.86171381631465    0.94236335020171    3.12542927007986
C         2.48137381338915    2.16878236146561    2.45424240627124
H         2.01610514406924    2.40137378140273    1.50738612278626
C         3.72695590298264    2.69353807044119    2.75388629743933
H         4.21825542102898    3.33852597644761    2.04077033537909
C         6.74779070995773    3.51521497012267    2.86023694813928
H         7.79603051737440    3.73241061681972    3.06689869581326
H         6.28545427092263    4.40681620410810    2.43868392440523
H         6.66782261721065    2.67954411624941    2.16481647069255
C         6.87923732937079    1.59428978915837    4.95901856251590
H         6.50663901060186    1.25261428557957    5.92363746337844
H         7.92734230697666    1.87194055900920    5.06548597312745
H         6.76868355366896    0.80926254571450    4.21119976877818
P         3.74273196962029    5.28237133261564    6.47341669098580
C         3.35699954678789    6.87328422009135    7.25531129365842
C         3.46743832833865    8.04263611656104    6.50587180693323
H         3.78378053062016    7.99013401468018    5.47402912402944
C         3.18527018890508    9.26805039023271    7.08192119881079
H         3.27217524887496   10.17169797028141    6.49564858024780
C         2.79049428841100    9.33676573085207    8.40885044396211
H         2.56579888915908   10.29384771649716    8.85583432598966
C         2.69196321258532    8.17740227482750    9.16091703773810
H         2.39441660883913    8.23046429649164   10.19746923101209
C         2.97984101355601    6.94849180213656    8.59265375641558
H         2.92976162741028    6.05295869131887    9.19160307980909
C         2.78880875418429    5.38637541538312    4.91548108628844
H         3.32195059673867    5.98646973177356    4.18190682775321
H         1.81801726467176    5.83511759583180    5.12462221963023
H         2.65238534962461    4.38130094178640    4.52058127384248
C         2.75773899913506    4.06863483147831    7.40081848629001
H         3.17913361573566    3.91675793789554    8.39117686195002
H         2.79537396009858    3.12069929247253    6.86657455586642
H         1.72852672169151    4.41974147084902    7.47552720445855
P         7.15844397525603    6.53509081763217    7.66683514719831
C         7.96876545691261    7.85196117099952    6.72033971486533
C         9.31725413323030    7.78609192549391    6.38859273264193
H         9.91828262197320    6.95544974836776    6.72606889260189
C         9.88352093395788    8.77350324188912    5.60187332339418
H        10.93090031432488    8.71580022975906    5.34384870786829
C         9.11099179301251    9.82308554590279    5.13424688770746
H         9.55486550211955   10.58712259113642    4.51288217908222
C         7.76373430776117    9.88525586375430    5.45201745917878
H         7.15492836916556   10.69517740418587    5.07642787832776
C         7.19239686662219    8.90264328628221    6.23762887292773
H         6.13547959946116    8.93885391682287    6.46554401926894
C         6.23846422575036    7.46303259446315    8.94438568189606
H         5.74039658324087    6.74384693605839    9.59199681652126
H         5.49670395320347    8.12342035571860    8.50595437317492
H         6.95290239212096    8.05016811946567    9.52132009954173
C         8.46632541369057    5.78753712286141    8.69178837153847
H         9.11499321512751    5.15317702244351    8.09172837354325
H         7.97943854440705    5.16749638301336    9.44374868397121
H         9.04161481728626    6.57765419459858    9.17533358733114

