65
CSD_code = QUJMUF | q = 1 | S = 0 | Stoichiometry = C26H33O4PRh(1+) | MND = 6
Rh        4.78188091466041    6.44466889177884   13.39018271943846
P         6.45750425566460    6.01149166895570   11.87169495475272
O         7.97725736320666    7.40017308513651   10.14692325163472
O         5.12468107061817    2.42952938685647    8.96528825285240
O         3.34089689489027    6.19723049855850   11.26418780494643
O         4.23016536238942    4.17842361009576   13.77008748347375
H         3.54875673403004    3.91619314892709   13.12726718169837
H         3.91417677630124    3.94352486517562   14.64910712161397
C         3.97686617699914    6.90608578247684   15.34300086176931
H         3.88727145111241    6.07677024394867   16.03283664248705
C         3.07471304576492    7.30001923946880   14.37555521400980
H         2.12078043007357    6.84715360541615   14.13946082043237
C         4.88835259502720    8.10245942899174   15.60496389801433
H         5.46734365434649    8.08678067473636   16.52244222169865
C         5.67009531013807    8.11999850798934   14.29512785744651
H         6.74661089721380    8.22076792216682   14.26098562584991
C         4.75698034606835    8.52762552341540   13.30569815795798
H         4.99320867289867    9.01682077876504   12.36998830791491
C         3.42823789937412    8.74562940492689   14.02549094866774
H         2.67257420831171    9.32166062083737   13.50118322516845
C         3.91099956146741    9.26726204107064   15.38767055111902
H         3.12002174792934    9.30558035736282   16.13520949748175
H         4.40720316135904   10.23409305777246   15.32298730401573
C         7.61677515267989    7.43134844675929   11.51071352285482
H         7.10127910074421    8.38129467951805   11.71347524638826
H         8.52807911221992    7.40648431595245   12.11345773765570
C         7.11960757200688    6.66288367571450    9.40786789806345
C         7.16921235240116    6.67137218037834    8.02223936381827
H         7.90695825025344    7.27570632582353    7.52094367898053
C         6.25909495375683    5.89987195857260    7.32157929061920
H         6.28340815231968    5.89972575909397    6.24322890868829
C         5.31180051580302    5.13710332079979    7.98355011718798
H         4.59922588288025    4.55596531582832    7.42013379783280
C         5.25983203353397    5.11106822809375    9.37497350011535
C         6.18238252746899    5.87255022545879   10.08956701647974
C         7.61080731739586    4.58009411107162   12.29304278828624
C         8.89332764893467    4.59609312180844   11.46692798722156
H         9.48356933271860    3.71443895526415   11.71105362237003
H         9.50803186743027    5.46902749471561   11.67021466343101
H         8.67314158456615    4.56507118782515   10.40102793849584
C         6.86028577909255    3.27621491683805   12.02827310255435
H         7.45509756967402    2.43229379166386   12.37304018792648
H         6.67764446456447    3.15093061263662   10.96315967756430
H         5.90943350901304    3.26398412472031   12.55605019352909
C         7.90784429629442    4.73430310503243   13.78481569000516
H         6.97291573077580    4.77197017935532   14.35165802752190
H         8.46744776890430    5.64840279369518   13.97888812095818
H         8.49687389837507    3.89349841101332   14.14454090318257
C         4.22778550051543    4.29490845638469   10.04593452962415
C         4.15691531928645    2.91303055479802    9.77374123819147
C         3.15895839564066    2.13877386817163   10.35770848162878
H         3.09357493271063    1.08344993277070   10.15324471914051
C         2.22908819095710    2.72083710709387   11.19997137862662
H         1.44910726737260    2.11377991456674   11.63249877879887
C         2.28986371681632    4.07364661643319   11.48324946126116
H         1.55118672447653    4.54680984744924   12.11409023047632
C         3.28949405580758    4.85699368652112   10.90689425333849
C         2.88688766128454    7.09526638616683   10.26032355729464
H         3.51370058539641    7.04295932901562    9.36606475515828
H         2.94434811025430    8.09247587135124   10.69089124241467
H         1.85071260522340    6.87091169639973    9.98976098749170
C         5.12711323999956    1.05674366945902    8.63496946505873
H         5.25019910504436    0.43161858550790    9.52395720573962
H         5.98254586244344    0.91960156994349    7.97637017058810
H         4.21406382316014    0.77075332549331    8.10596665899088

