97
CSD_code = QUJPIV | q = 0 | S = 0 | Stoichiometry = C42H32CdN18O2S2 | MND = 6
Cd       -1.34804060634246    5.91596566949924    0.00140682068694
N        -1.41414843790441    5.58788027731809    2.29920447356595
N        -2.59721057297869    5.02086483478755    4.02962227178469
N        -1.56009198534332    4.18176445555684    4.01366162457267
N        -1.38630856760396   10.25656632422297    7.48365300820896
N        -0.53675379264313   11.09235322485308    6.87945224606835
N         0.69699095556306    9.65520237670632    0.73288940164606
N        -0.18540366089330   10.22433501797637   -0.08934530523796
N        -0.84667871400412    8.16252955414730    0.40714645184640
N         0.75585518236405    5.63460642652397   -0.07432653832411
C        -1.09769808334286    9.30455625966185   -0.27045871118747
H        -1.96169036911136    9.45410341126151   -0.88564522977850
C         0.28783820265609    8.41849960863216    1.03066820707148
H         0.81967622026627    7.73752415881168    1.66583012655842
C         1.85705817515957   10.35895633905671    1.19995943526126
H         2.12145553176531   11.09166210124548    0.43419750653458
H         2.67848374930703    9.64060117701147    1.29828006980295
C         1.62120424804201   11.05717132361274    2.52123380123959
C         0.78957738502832   10.50994515929218    3.48494604364925
H         0.27291293488848    9.57831700054720    3.30419182430944
C         0.60116390690717   11.16155000979488    4.70201004938492
C         1.25439262487043   12.36558549835645    4.96085179125412
H         1.09354859677571   12.85035829017426    5.90985769160925
C         2.08503220681842   12.90555409736427    3.99907218241040
H         2.59346488739772   13.83817568046403    4.18905410039265
C         2.26583922198259   12.25985153323540    2.78626798879683
H         2.91380644994916   12.69184547286391    2.03832309454358
C        -0.27014892503517   10.59598283709280    5.70583366036338
C        -1.61461742559604    9.27257835292229    6.66273013560467
C        -2.47515261398255    8.13393755800426    6.88420512788475
C        -3.18522096662259    8.02302266514361    8.07751472720683
H        -3.07519724921701    8.79303396802587    8.82340959221101
C        -4.01004322791101    6.93186668346128    8.27308035387039
H        -4.56463670546982    6.83526794449688    9.19369836600901
C        -4.12911150885842    5.95808070773507    7.29545937869683
H        -4.77608990608625    5.10858902256633    7.45631150721553
C        -3.42280042684087    6.06083119644330    6.10089875789385
C        -2.59648076968388    7.15301725625271    5.90129987780300
H        -2.03066146250113    7.26444480244032    4.98811072811424
C        -3.59698627489766    4.98076049383025    5.05543299248866
H        -3.53324531064444    3.99607709981515    5.52567753884605
H        -4.58156486066877    5.07935449877286    4.58248608303974
C        -2.49713272879914    5.86636148885108    2.99949016754021
H        -3.19884313512328    6.64893904571365    2.78915265219223
C        -0.87035180301837    4.54223843155286    2.96208771509169
H         0.04735250090876    4.07297755347654    2.66788658233483
C         1.53197673454918    6.30314725094409   -0.65151927270007
O        -0.92856826400477    9.42955831107491    5.50466486300570
S         2.57787604137141    7.20497835073775   -1.44268798821180
N        -1.27578417946497    6.24485527822029   -2.29948596712944
N        -0.06997477655021    6.81221805243832   -4.01420225315856
N        -1.09998844559198    7.66006225503312   -4.00384853896253
N        -1.24133303454476    1.57514735044559   -7.48071330125177
N        -2.09739561333070    0.73989986474075   -6.88489429401206
N        -3.40103377101073    2.18684286255920   -0.75250653074354
N        -2.53524651133319    1.61289924001481    0.08387590572924
N        -1.85331020539503    3.67006254180193   -0.40353811472696
N        -3.45108256609679    6.19684316758006    0.07529183096915
C        -1.62009594909196    2.52703632649390    0.27868838070336
H        -0.76744701610466    2.37270812831703    0.90841127833624
C        -2.97963563252161    3.42086240890793   -1.04445974243033
H        -3.49748126209682    4.10566229807544   -1.68705998952632
C        -4.55808913492619    1.48923415049563   -1.23645572763216
H        -4.84014699589203    0.76109844202726   -0.47265995548541
H        -5.37275011181154    2.21278409470061   -1.35121592753102
C        -4.30482834445094    0.78477191246286   -2.55118906257455
C        -3.46440923405539    1.33073866117125   -3.50798839515220
H        -2.95341523803870    2.26514241690842   -3.32544345897309
C        -3.25986865406343    0.67439779246323   -4.71989826866852
C        -3.90591011740906   -0.53309201120397   -4.98072245801689
H        -3.73286294650465   -1.02142708855780   -5.92576248455138
C        -4.74498450426188   -1.07201797884473   -4.02571518170395
H        -5.24766005478875   -2.00747586266314   -4.21708537252666
C        -4.94162577903020   -0.42168758329318   -2.81780350707216
H        -5.59602257440769   -0.85307251023660   -2.07513868164878
C        -2.37841567787642    1.23854443323808   -5.71563316681646
C        -1.02364927363224    2.56103861721650   -6.65919952815891
C        -0.15994186722024    3.69909761132548   -6.87102288852501
C         0.56730831820953    3.80786356812490   -8.05409221619401
H         0.46722329856529    3.03713871660326   -8.80065053705475
C         1.39629689316497    4.89780730664862   -8.23870651271020
H         1.96418691439388    4.99288628028441   -9.15133570320988
C         1.50312311685516    5.87200339546022   -7.26007797594581
H         2.15401246887360    6.72013036142273   -7.41209839548363
C         0.77961763965043    5.77135629239338   -6.07563472993925
C        -0.05159026433533    4.68090711032180   -5.88748478224052
H        -0.63114365295411    4.57122772098113   -4.98276868929653
C         0.94194294926204    6.85110659208734   -5.02805852346084
H         0.88514824121873    7.83608876371068   -5.49847592234490
H         1.92072009664986    6.75132101286493   -4.54328006158075
C        -0.18790659385987    5.96152175511560   -2.99035790746593
H         0.50494080795963    5.17177715734464   -2.77727776829168
C        -1.80364156937266    7.29909037579257   -2.96166170571434
H        -2.72051648610304    7.77426106782699   -2.67471844622720
C        -4.22583930685364    5.53152356988421    0.65842911230492
O        -1.72353834215959    2.40603881564681   -5.50920014246605
S        -5.26898245910748    4.63410446324582    1.45759833536276

