121
CSD_code = QUJQOC | q = 0 | S = 0 | Stoichiometry = C48H52F4N10NiO6 | MND = 6
Ni        1.50488902094178    4.32870331635767    3.72465465437028
F         5.25050175631690    4.66782733592333   -1.86059614366770
F         1.08437715070902    5.88957302724164   -3.76170769799536
O        -0.05966304608306    5.45283735432061    3.56210897530234
O         2.31992974918603    5.75500732191257    2.10043444581059
O        -1.76992564992078    6.32820012497624    2.49292382943867
N        -0.09963341097354    5.87315163588272   -1.19242430004283
N         4.33063987564507    5.18735012732092    0.60473098708989
N         3.70916721751715    5.01746620421994   -4.13022445404721
N         4.98734622841282    4.34960300559950   -6.58589282598427
C        -0.61515738587719    5.91444413733875    2.51907885131469
C         0.14888362433048    5.90491216765171    1.19174111750705
C         1.57744371694126    5.74089796218637    1.09561233779666
C         2.09791108317650    5.55833459400778   -0.25165803360696
C         1.25295812089616    5.65884273900929   -1.38357674694638
C        -0.59214095756625    5.98186637992478    0.06235347934594
C        -1.02506670841226    5.94896308467843   -2.28765088114839
C        -1.30001010556696    4.72517265563853   -3.11287704011078
C        -2.34934416480861    5.25374933081618   -2.18898625241739
C         3.48148561477170    5.26455377492175   -0.43557072914700
C         3.94143570567124    5.05293989713927   -1.73273822155700
C         3.16553661329917    5.22624532575423   -2.88023960802276
C         1.82360837917729    5.56318990271242   -2.65726637294662
C         2.89907389493942    4.63688702875179   -5.26629215832031
C         4.92892008426597    5.69620470054493   -4.52279932401193
C         5.75954842280678    4.77708917406448   -5.43137378224084
C         3.73671555734910    3.73015210232770   -6.19234811678340
C         2.94054095159691    3.34207822427246   -7.43199836017780
C         7.03861639912156    5.46567710143572   -5.88742495427331
F        -2.63869364606642    2.04390017541673   -1.12209939869336
F         1.40309935767955    0.22902917901183   -2.81102947001448
O         0.78925617928752    3.23869419917364    2.33674567484569
O         3.13369693140447    3.33028457920188    3.70432917282377
O         4.85202859326054    2.39313701688750    2.69481004992475
N         2.83606984199334    1.37149206512537   -0.66578805184374
N        -1.43043768921704    2.83999521647316    1.09624432919674
N        -1.25639709135519    0.62682993766223   -3.15742740219183
N        -3.02187479630422    1.11682701612412   -5.35364413570653
C         3.67275279642815    2.72599528435129    2.73180031401460
C         2.82147314567353    2.36638903153365    1.50842680859158
C         1.41939809778254    2.63228719985536    1.43112263610473
C         0.73841770219571    2.14307260688360    0.25254030776733
C         1.46480344534460    1.50641977285813   -0.79102119923992
C         3.44566085274809    1.75296006046621    0.47164558811371
C         3.64536344101273    0.78180855754547   -1.69780004739888
C         3.86961825396688    1.52591925657409   -2.98157107092994
C         4.99175210436652    1.36107326446825   -2.00693060238701
C        -0.67680192288321    2.28146308679936    0.13025808419540
C        -1.29203142359629    1.80935714787306   -1.02702817505453
C        -0.62638050944225    1.14677484831643   -2.06349744736804
C         0.76262779824133    1.00266612164288   -1.88449405511571
C        -2.61698507455612    0.13757069255586   -3.13437488316616
C        -3.53559058440415    1.02165053942166   -3.99758462435937
C        -1.64531540384614    1.56965678654023   -5.38471784441325
C        -0.71786189320456    0.70615661692805   -4.49730321853003
C        -4.95891594001956    0.48297365571488   -4.01564465701202
C        -1.14187931994858    1.59400265156813   -6.82222481626722
N         2.13931490156595    5.41185077650075    5.11035584980956
C         3.38843370253578    5.86651153499279    5.10313750143955
C         3.86898813262220    6.73199419318231    6.07219175028725
C         3.02208836881093    7.13876997334396    7.08964049431924
C         1.72262196949990    6.65723473398741    7.09355524295073
C         1.32020767343050    5.79795422639844    6.08523253305891
N         0.35013768458973    2.83733633685829    5.19219956561485
C         1.02275070040100    1.71868108115666    5.44732777955688
C         0.45596903980905    0.45635248872096    5.36315609710285
C        -0.87671259064106    0.34906669144745    4.99879957439220
C        -1.58825376553413    1.51140431387574    4.74770896938860
C        -0.93523643292313    2.72861138510622    4.86265154085619
H         5.25193564593423    4.80891684783750    0.47491709774528
H         3.91672663252097    5.27495649150358    1.52912661251691
H        -0.96266770697387    3.27247942472852    1.88171812658552
H        -2.40828185563900    3.00198264630540    0.93179409688446
H        -3.09763974237647    0.21173726854707   -5.81150450643000
H         4.79875224060913    5.15175447377126   -7.18291111721440
H        -1.65616366519617    6.14779421025516    0.15416296488544
H        -0.99864923462286    6.90312041184360   -2.80375795948556
H        -0.79206538253841    3.81548675986931   -2.82778437893397
H        -1.41601365439951    4.85404220208320   -4.17768698574094
H        -3.20911389639290    5.75186347168875   -2.60885924370007
H        -2.56978825536353    4.68017601863582   -1.30356215286132
H         2.55786673802010    5.51814193259699   -5.83159344274450
H         2.02364728845564    4.08384980532570   -4.92453011739502
H         4.67408062160087    6.61550287976230   -5.07810739415082
H         5.50427130159973    5.97997931282147   -3.64563912145019
H         6.01097118690961    3.87203712792977   -4.86527359848959
H         4.00491098184375    2.82557908430775   -5.63264617675263
H         3.56569931363176    2.75296541866417   -8.09657471348532
H         2.60725185758665    4.22983777054172   -7.96555629764482
H         2.06809889404385    2.75565549046646   -7.15611246026942
H         7.67309606677673    5.68697808240227   -5.03389302589794
H         6.80830961948623    6.39695586820935   -6.40158582733461
H         7.57821524995955    4.81744885210076   -6.57169597178270
H         4.50401341716999    1.54994686550058    0.55935755673938
H         3.54040361959090   -0.29650588583558   -1.75365854837642
H         3.42836965217906    2.50637339796814   -3.07081049844044
H         3.87233180871147    0.95631104853264   -3.89765852796337
H         5.31864322190566    2.23668421367930   -1.47121619625501
H         5.78872517954952    0.67267603376180   -2.24066414614122
H        -2.98126965848106    0.06932869278127   -2.11266194655584
H        -2.60820291306541   -0.87731171651251   -3.55913140625305
H        -3.53409146783415    2.03682614044295   -3.58340728710391
H        -1.64719635264598    2.58997129622908   -4.98159244222207
H         0.27392922343130    1.15215827909869   -4.48775423917144
H        -0.64280914389709   -0.30497223432327   -4.91931059273849
H        -5.38473955352312    0.51272969631405   -3.01679649567853
H        -5.57000419253717    1.08805900183036   -4.67890635532220
H        -4.97399851247978   -0.54537890396308   -4.37198672469424
H        -0.15719301760726    2.05072706498995   -6.87392632038337
H        -1.82850742375056    2.16663077494812   -7.43885117854269
H        -1.07752842044760    0.58387432010954   -7.22144069353874
H         4.03002211804775    5.51689897751234    4.30648674291090
H         4.88949848907038    7.07818632212043    6.02503272761807
H         3.36516162094976    7.81414899763759    7.85939102168452
H         1.02593958186688    6.94453212094729    7.86531282841145
H         0.31052642170375    5.41476310870715    6.04466436282724
H         2.06106362997197    1.84537133472052    5.72497040920310
H         1.04652102581810   -0.42158710032296    5.57631239942274
H        -1.35097062254651   -0.61893631106494    4.91674061194519
H        -2.63037596097517    1.47570293021619    4.46903754948691
H        -1.45406238417049    3.66097564229344    4.67893154310792

