46
CSD_code = QUJRAP | q = 0 | S = 0 | Stoichiometry = C17H19N2O6ReS | MND = 6
Re        2.10895887679178    0.36853140202789    2.90574385184511
N         1.60084490924151   -1.64710455189546    3.65399989446995
S         4.56389970390589   -0.06755416056213    3.78422517788336
O         2.66349645522363   -0.85866460763857    1.18412777569119
C         2.75838823610491    1.98605062504494    2.03164272149949
C         0.31935210110920    0.68502529219545    2.20676133683088
C         1.65326258981766    1.37536132772548    4.49763357219714
C         0.90302129900447   -2.40152508665368    2.79818678142640
C         0.80169282003060   -3.77452425921038    2.90690279730441
C         1.44317395510274   -4.41085009729210    3.95833258316409
H         1.41058331637204   -5.48374077435182    4.06564821593143
C         2.12872293538116   -3.63223961709489    4.87059792585611
C         2.18665226572537   -2.25283907392949    4.69509103372065
C         2.97902619007096   -1.42638100702841    5.66617914680499
H         3.00514135422943   -1.93858650290177    6.63038862503549
H         2.51167266528012   -0.44815459717217    5.80761251798013
C         4.41956929812005   -1.24496703874509    5.18597525486270
C         5.41047041313123   -1.05858699126451    2.45526929913657
C         4.46996834502689   -2.20994403693534    2.05207170761327
C         3.46470326960487   -1.78706461730708    0.91575068797467
C         5.30565716261775   -4.44297098017088    2.43784818067446
C         5.79467595656734   -5.70382004845461    1.76933069035193
H         6.69166469626923   -5.49842356412930    1.19009322899305
H         5.02606148441402   -6.07713656357579    1.09513199840775
H         6.00855314973209   -6.45718056623319    2.52208633933041
C         6.74078807539892   -1.55805195040701    3.00996468959866
H         6.61165902081830   -2.36549808964693    3.72607779612994
H         7.27460324489691   -0.73983694048724    3.49004045124021
H         7.35050004589677   -1.93474557778700    2.19109293967535
C         5.67433439845732   -0.07383617882194    1.32010560589435
H         4.76256938605178    0.42711573799780    0.99742249022259
H         6.08509792989212   -0.60743189458195    0.46462883071995
H         6.38643206714457    0.68552002013960    1.63852992835749
O         3.53298174601638   -2.41092440480745   -0.13094762098529
O         5.07272561218809   -4.35647113798583    3.63370295012543
N         5.17273695234561   -3.38569823099832    1.60942259052091
O         3.17704516389466    2.90008263374105    1.49210018663930
O        -0.72737462500738    0.87217453162772    1.78273552651948
O         1.39798526115054    1.98040941299188    5.44114010098122
H         5.12520348873485   -3.51749963518007    0.60210806820773
H         0.42063099742228   -1.88774505326735    1.97667302204862
H         0.24002817457121   -4.32793646535784    2.17218441409795
H         2.64512120836447   -4.08203170840225    5.70331322630296
H         4.84006767484506   -2.20370141473816    4.88219873532355
H         5.02729271902642   -0.81684535559197    5.98269088295733
H         3.88645800901953   -2.52175820288402    2.92748384043460

