63
CSD_code = QUJSOE | q = 1 | S = 0 | Stoichiometry = C22H30CdN7O3(1+) | MND = 7
Cd        7.94082112589176    2.07270473085294    3.75180596358435
C         9.09277155695283    1.42207858381967    0.43032287971823
H        10.04900085968785    1.69431844149871    0.85194704381008
C         9.01623148978255    0.89068146006676   -0.85121216687454
H         9.91084256175150    0.73938949955695   -1.43351929302057
C         7.76888073927851    0.56427693943532   -1.35822464886255
H         7.66392082217935    0.14734888508470   -2.34793163258482
C         6.65700426822130    0.79327278335933   -0.56545409479828
H         5.66570292628512    0.56334390274686   -0.92447279848657
C         6.83352326734381    1.33090883149576    0.71014437466065
C         5.67670248469322    1.60619802739419    1.55256964415820
H         4.69739257355608    1.38658520193584    1.10870947449442
C         4.62456673110831    2.37459777728033    3.48500312507246
H         4.75142771741142    1.91762158643186    4.46931360872435
H         3.71865858503879    1.98176672286210    2.99871939460990
C         4.47760994476910    3.88914973789789    3.67258071133140
H         4.50069993101131    4.38030937639323    2.69790044927650
H         3.49657182880311    4.07723895095060    4.11096073283874
C         5.51923507813282    4.47716348543972    4.61770322598944
H         5.28309890037251    5.54257677312779    4.77715563194527
H         5.43292855811986    3.96113048975576    5.57688605152746
C         7.78080707311232    4.79575754671075    5.26345381903606
H         7.64826305646807    4.13070180262780    6.11870652058214
H         7.50201030581604    5.81490305522739    5.57641644851241
C         9.23993908758328    4.77514226734658    4.79294359818486
H         9.61559250600612    5.80002421144842    4.64657710391977
H         9.85652208161762    4.29123079789333    5.54841681584240
C         7.20972898408555    5.14388153244364    3.00658790942951
H         7.11686808231102    6.21496297466350    3.25001499365671
H         6.49654278910129    4.91635840930362    2.21441289667768
C         8.63406728197537    4.82325230557867    2.52007337386959
H         8.59742861613844    4.24217769926981    1.59522101125684
H         9.17737550945061    5.76009971342399    2.31909220845808
C        10.74573168789994    3.88378304697844    3.15045478192701
H        10.78052054595241    3.62430977702751    2.08897471681561
H        11.25786454103990    4.85214194754988    3.26877106744178
C        11.49678430646902    2.82269310399536    3.95547800182029
H        11.12049543411892    2.78060221001929    4.97685527386452
H        12.55244836242908    3.09500323962877    3.99171998519198
C        11.40674432113682    1.41562867485368    3.36323228994781
H        11.64672287289170    1.45726647144302    2.29448950359943
H        12.15720949897750    0.77336057381712    3.84807554655238
C         9.98360102433227   -0.30236623557148    3.99415641380140
H        10.86104576386030   -0.87695139187581    4.31289648066861
C         8.70212678708965   -0.97145233844082    4.17705452138592
C         8.65929631146169   -2.22586522683484    4.78545223610403
H         9.57141382935302   -2.69534809731587    5.11852625405660
C         7.43278757927163   -2.83500490884193    4.98206366056230
H         7.36591933835027   -3.79235481447439    5.47483240643249
C         6.29521418423986   -2.18125620354837    4.53780897806959
H         5.31630442843041   -2.61227092855854    4.67201303156679
C         6.43351701334607   -0.94149548371526    3.92938401874090
H         5.56280224796781   -0.40503935976211    3.57818439867125
N         8.03995825904715    1.63460534201585    1.19872134475919
N         5.79542412903570    2.07987856204145    2.71747017340546
N         6.90853445816426    4.33598481051356    4.18311255881959
N         9.34042142528201    4.03576854788387    3.53346700673500
N        10.09000795556400    0.85804534143239    3.50155157575453
N         7.59988106652332   -0.34042394920829    3.75442602828403
N         7.84985325245577    1.18561558884952    6.00587534408425
O         6.76039913518271    1.55444999237132    5.55191434760668
O         8.85309781041226    1.85681334163366    5.73802170244780
O         7.92993510565510    0.20572386277083    6.69869197434444

