73
CSD_code = QUJYEZ | q = 0 | S = 0 | Stoichiometry = C27H41CoP4 | MND = 5
Co       11.98376691862014    2.99358530470900   11.11452647728836
P        12.81105307002760    3.62080687532086    8.96420488884587
P        10.46842401297934    4.47454915483640   11.76061470355402
P        12.18432585752260    0.83151746813820   11.57492552955388
P        13.76480436816365    3.75921802920818   12.16158229080039
C        11.21953732255144    2.80937791260526    8.63739274183123
C        10.64330304182051    2.53502404174165    7.40766410423294
H        11.14778168930546    2.80760591873476    6.48895739175747
C         9.40917394170404    1.90748869896026    7.38213918307016
H         8.92828495423389    1.68830248316811    6.43866060653479
C         8.79416639364553    1.55756361082734    8.57392517600043
H         7.82803715723616    1.06842812652101    8.55108351970733
C         9.40165000023232    1.80971495659649    9.79547344142017
H         8.88995639767939    1.49173554104126   10.69650075843477
C        10.64033463362768    2.44196168351356    9.85840634035041
C        13.88322294088806    2.63603159034888    7.85919680309926
C        14.37366377896852    1.45059268577486    8.39749155845447
H        14.12658071397093    1.21701904129986    9.42683552661125
C        15.14999692636568    0.59741782925436    7.63857787522103
H        15.52368303616279   -0.32385227010793    8.06415862585331
C        15.45370413842009    0.92903347691815    6.32763936980864
H        16.06375246309452    0.26821107960020    5.72874379151628
C        14.97413335643751    2.11038768606477    5.78636422907405
H        15.20946557302310    2.36792737648262    4.76310230799542
C        14.19044008049133    2.96295525348055    6.54372967520982
H        13.82044230143870    3.88192378881279    6.11124550911321
C        12.72483692673998    5.18723479380686    8.03336407242438
C        13.90017938832404    5.93108948657493    7.92865156702796
H        14.82119047752842    5.51759199594769    8.32219582058872
C        13.89762907955431    7.16850434416147    7.31601924617039
H        14.81603973414555    7.73232836910171    7.23002705697586
C        12.71461186415338    7.68932810755096    6.81398075512797
H        12.70975119883462    8.65804315929539    6.33550240010219
C        11.53970850407332    6.96525322013168    6.92971664970042
H        10.61613946120096    7.37040897240421    6.53988419300547
C        11.54105469807346    5.72323719904410    7.53974995398528
H        10.62344214880508    5.15868306295673    7.62430437798425
C        10.81279359412598    5.98869124258167   12.76220216813466
H        11.37927393884794    6.69428577761526   12.15793354948438
H        11.39348070601239    5.72452422634787   13.64384001892809
H         9.87960633180978    6.45654491733396   13.07484003526911
C         9.40165360056131    5.27547209779659   10.49888401018886
H         8.62951413620265    5.87669070182347   10.97852532577527
H         8.94104453683209    4.51505035724773    9.87278270753390
H        10.02494003181049    5.91378250774978    9.87434720815869
C         9.17267380445917    3.75508043488572   12.84868505884026
H         8.43695428698577    4.51065422098201   13.12278724366288
H         9.64425685306248    3.35945998025559   13.74634825988769
H         8.67844052571763    2.94264218517842   12.32469032185558
C        11.72447049456152   -0.46731763099704   10.35617499616572
H        12.36940107352705   -0.39631097639193    9.48227563276293
H        10.69911542848572   -0.30927494460401   10.03234025018518
H        11.82201535368977   -1.45609539258076   10.80383844754249
C        11.01180973454953    0.39880284735646   12.92319690927731
H        10.01045774349254    0.69536467579285   12.62477416617372
H        11.28612749292245    0.95546666988227   13.81763784265824
H        11.03225243599169   -0.67040101785627   13.13247800575863
C        13.67586896295031   -0.01485810408492   12.27157454133452
H        13.41235741598461   -1.01472144000354   12.61544768618913
H        14.06827216858812    0.55805344778508   13.10915866590561
H        14.44644498996405   -0.09770600958252   11.50691656958184
C        15.37062282178604    3.08678595541733   11.56925856397884
H        15.44526369207575    3.28709933273848   10.50087522237926
H        15.41612053502212    2.01307084309954   11.72395556832277
H        16.20025777812970    3.56353125165661   12.09137253165892
C        14.03954528718794    3.65658680948135   13.98169531937607
H        14.97557885644179    4.13912485972427   14.26096287626591
H        14.06276779726306    2.61282393206481   14.28917085864295
H        13.21221751122095    4.14387399933744   14.49496306976150
C        14.15541286264111    5.53869569821511   11.90653627462253
H        15.20714091188928    5.73039086525805   12.11792504173794
H        13.54208948919374    6.15345157320066   12.55874298571104
H        13.93778826607001    5.79755405030334   10.87112354782540

