85
CSD_code = QUKJAJ | q = -1 | S = 0 | Stoichiometry = C28H38B18Co(1-) | MND = 10
Co        9.92096933538181    4.83383230571293    2.79272389438143
C         8.95300199843319    6.42972777298227    3.58745666000132
H         8.37540259128624    6.06818278139166    4.43031274848496
B        11.28315248471504    6.33664011789814    2.30461176903452
H        12.38626612588707    5.91447242229289    2.27754947115814
C        10.49956728404136    6.52190441527334    3.75666717927651
H        10.92014940522148    6.22047274120117    4.70883202613339
B        10.02683754263281    6.15538997249302    1.10639769954031
C        10.88294518687617    3.23703696694720    1.99434089845434
H        11.45757602376515    3.59744198240193    1.14913522134964
B         8.52902876086804    6.17263395019174    2.00272131848076
H         7.51601592590465    5.62264638603715    1.74316693020918
C         9.33567289592196    3.14633547266904    1.83098248318624
H         8.91161005872909    3.44882220606978    0.88046423072573
B         9.61011970916638    7.99008124773938    3.90634738824812
H         9.46479649636571    8.42527236043665    4.99334243987739
C        10.22241246377097    5.43637120257459   -0.28494649041608
B        11.13646214150095    7.94398974270071    3.05398943645762
H        12.08935412314572    8.43836533373689    3.54752170931097
C         9.13829855074205    5.04033778031669   -1.08234855027202
H         8.13681856886285    5.24610516918157   -0.73111012821648
B        10.80658724237796    7.74973183795957    1.33619894496528
H        11.51018479870798    8.20165945113345    0.49905272879181
C         9.30231848190327    4.41014007259913   -2.29728940551313
H         8.43364745482373    4.10555843655831   -2.86704502267791
C        10.57620532648715    4.12079043680181   -2.78824752841965
B         9.03385727633604    7.64422490169977    1.14213149532181
H         8.47986917886866    8.02154402787552    0.16702363532378
C        11.67092682097340    4.51171571320448   -2.01580668476031
H        12.67176168843217    4.33165057236525   -2.38716539558518
B         8.32015388384077    7.77620631553845    2.74523106794859
H         7.23200278497804    8.14902995103519    3.01501192526153
C        11.49275751564928    5.15530896036029   -0.81012704619916
H        12.36342263067935    5.46665849621587   -0.25005759941413
B         9.73666382363986    8.76529230795437    2.33227425431128
H         9.67984958163635    9.94075563630462    2.21378716534124
C        10.76046997947035    3.44229478959875   -4.07242147342312
B         8.55873104907548    3.33209792284541    3.28675386413440
H         7.45680498573275    3.75720101604572    3.31895452603958
B         9.81989058723813    3.51181500260807    4.48048433190880
C        11.76865763999732    2.49258420727020   -4.24418978175287
H        12.40557262125173    2.23969622219377   -3.40897187196917
B        11.31394803881702    3.49391246062721    3.57742871619108
H        12.32936020812222    4.04141689843143    3.83236060590888
C        11.94588019622218    1.85687856461678   -5.45761997014020
H        12.72955285100348    1.11955564103572   -5.56921773251558
B        10.22256605643920    1.67715439473080    1.67826837872155
H        10.36255792086852    1.24135109858885    0.59082208199199
C        11.12128476779646    2.15470059587480   -6.53020345479555
H        11.26104517032082    1.65766844146341   -7.48018926108613
B         8.70004443872809    1.72470999631254    2.53699849907575
H         7.74475182596886    1.23096483011014    2.04759375047821
C        10.11541589535833    3.09448927639351   -6.37468508597518
H         9.47003921925684    3.33577380998720   -7.20882340883680
C         9.93624880588940    3.72984209006446   -5.16134280600754
H         9.16056953645274    4.47469200197256   -5.05582811113624
B         9.03756116592909    1.91861133793592    4.25339151311426
H         8.33716794457576    1.46677496621390    5.09328530977523
C         9.63010297371234    4.23744515233212    5.86917356380057
B        10.81115629955500    2.02303842156188    4.44066187774138
H        11.36961451621055    1.64535463158131    5.41308141942233
C         8.36245430011343    4.50092559304574    6.40938499677249
H         7.48982382145165    4.17487885439765    5.86085014716913
B        11.51770705584719    1.89027497310393    2.83393191490403
H        12.60444474054378    1.51640945910017    2.55968045730886
C         8.18923215802450    5.15093821079051    7.61258544166532
H         7.18969775315127    5.35151792533443    7.97679466346310
B        10.10232531134698    0.90231901380991    3.25302655251014
H        10.15916918754863   -0.27318242967366    3.37125608979823
C         9.28665288774142    5.59501017872713    8.35153633936935
C        10.55879965763098    5.33130653032323    7.84153416575057
H        11.42942625609579    5.63081183830057    8.41102227011040
C        10.71784784911673    4.66614165570719    6.64491440472840
H        11.71802843349580    4.45821947445495    6.29115533569171
C         9.11247535568053    6.30632594941956    9.61925083874804
C         8.11207889213728    5.93763488418967   10.51974386929520
H         7.46766779429208    5.10329225107249   10.28255420203751
C         7.95223748349005    6.60807205663016   11.71685556021190
H         7.17453073973961    6.30337728661134   12.40446035152312
C         8.78640685424181    7.66474782842908   12.04355211477112
H         8.66061225303784    8.18937315385606   12.98056315921254
C         9.78256431734627    8.04388209442958   11.15866620979831
H        10.43398563299080    8.87204791288878   11.40354663852497
C         9.94445060435479    7.37325351182138    9.96204015646646
H        10.71211980321064    7.68906857521893    9.27059776913899

