34
CSD_code = QUKLUE | q = 0 | S = 0 | Stoichiometry = C10H12CdN4O5S2 | MND = 5
Cd       -0.25990198142042    1.70395570753286    3.17710388534515
S         1.06292147839657    1.65038196109039   -1.29515525380557
O         1.71380840503135    2.03952963747306    3.71505497538461
O         3.88586127262991    1.68051769959627    3.47334393260685
O        -0.76173873025915    4.06782046747472    3.38831431489039
H        -0.36764905174529    4.70011795898728    2.77656751289228
N         0.42910448636367    1.29832664785940    1.16394802346132
N        -1.23594644778666    2.39175438761007   -0.06111830802571
H        -1.62460619005071    2.54518104905160   -0.97553682142503
H        -1.87271224807802    2.28716342779405    0.73305945882444
C         2.21222948465139    0.90899114496462   -0.22453553154699
H         3.17236632673343    0.61127106895167   -0.58973851789704
C         1.70859892639935    0.80524312881741    1.02670090440109
C        -0.04503271794690    1.78573880313573    0.04667065280253
C         2.39820302359733    0.26570029618443    2.22347179846489
H         3.33078412779867   -0.22357039090923    1.94667985079924
H         1.74356021489827   -0.43692212006560    2.75490394294518
C         2.72826975158406    1.43722573960674    3.22155812646235
S        -1.55558220511411    1.66691646190431    7.57071694361568
O        -2.26720361224780    1.98187433298825    2.49707645151911
O        -4.41309753782264    2.06445749129568    3.02734706421748
H        -1.66889886564802    3.90587413796541    3.07984396715912
N        -0.97650589728127    1.16866053442579    5.12142921053139
N         0.84077698149761    1.97488234868052    6.35241955332727
H         1.14770957075682    2.44569182796429    7.18535779677205
H         1.38543690373615    2.08609747418161    5.49095266827270
C        -2.79128833982254    1.04303506356667    6.52136528853601
H        -3.78031573809167    0.87637679239395    6.89271705156249
C        -2.30795219639795    0.84337225115390    5.27501511308795
C        -0.44093106685324    1.62744831979462    6.22781343959015
C        -3.07681726133983    0.37079275749940    4.09407301749640
H        -4.04547880722742   -0.02202417554178    4.39843971032671
H        -2.50648137689467   -0.38984800708470    3.55035704873953
C        -3.30809068204108    1.58006577366584    3.12968272866512

