51
CSD_code = QUKLAK | q = 0 | S = 0 | Stoichiometry = C25H19Cl2N2O2Re | MND = 6
Re       10.21775008344783    1.43531636591203   18.07750635181456
Cl       10.65060942520310    2.85656107567982   19.85671203255786
Cl       12.37764047204580    1.60627553556135   17.25367687839974
N         9.47412395608020   -0.11666890611905   16.55661975054644
N         8.07153547995920    0.89628258264575   18.68643618699647
O         9.58352018311725    2.60419822059124   17.09606365568999
O        10.68272989811432    0.04498785732913   19.05067144415763
C        10.16406807896162   -0.56460074062362   15.53660739882919
H        11.19075248662634   -0.22613364640400   15.47821266085827
C         9.60770233798334   -1.40646250650632   14.57520874240300
H        10.20215651139265   -1.73124124679549   13.73583219557805
C         8.28243253415786   -1.78689970058965   14.68203320537276
C         7.54386653639562   -1.33773230545261   15.80694606352776
C         6.19691953366572   -1.72317422356942   16.05800683454994
H         5.72079547389931   -2.40257844194833   15.36797049823869
C         5.51987430886179   -1.26271886317791   17.13791364049427
H         4.49306921886195   -1.55264944668431   17.29902776799707
C         6.12683893673975   -0.37598009508564   18.07129105611934
C         5.44466924450958    0.14823734857915   19.19919729500396
C         6.10500352081314    1.06730467244778   19.99404719830378
H         5.61415757062808    1.49735368208173   20.85286601789301
C         7.42313190969848    1.41283707787310   19.70118526395695
H         7.98002745940822    2.11772001034133   20.30539403310072
C         7.46319367951066    0.03139173375696   17.85768820062438
C         8.19149115274942   -0.47950440153800   16.72410623262207
C         7.67656914417121   -2.62157368656625   13.63363767728895
C         6.52362875224752   -2.20693539286540   12.97048372956551
H         6.07114416156524   -1.26016069330257   13.22778805387711
C         5.98378314209548   -2.98368780888096   11.96183305520926
H         5.09477735305389   -2.65026884580286   11.44780455714641
C         6.58121001849195   -4.18273992195342   11.60970629865666
H         6.15481983697285   -4.78943786148893   10.82533668968195
C         7.73110186289606   -4.59788014533942   12.26088595001607
H         8.20264880072318   -5.52930112474432   11.98586194692571
C         8.28232152914692   -3.81875223932120   13.26124789741397
H         9.17575226773251   -4.14434892896404   13.77380210670405
C         4.07378333158641   -0.26007085543705   19.54193493605074
C         3.08935899401190    0.70698357750209   19.72787006519320
H         3.33423553072961    1.74855343789080   19.58075486677962
C         1.80272809707090    0.33498900550705   20.07108921598412
H         1.04371150807031    1.09121055741920   20.20286736102772
C         1.48914710210187   -1.00230048918437   20.25024349345757
H         0.48556233797762   -1.29095749297780   20.52339319157318
C         2.46768252255115   -1.96845506545345   20.08449127377502
H         2.23022940367705   -3.01102317751698   20.23472378767751
C         3.75280697239656   -1.60279789096084   19.72805183630303
H         4.52036287516566   -2.35591903743360   19.62058078118105
C        11.32209236514126   -0.82483429617986   19.88029704031155
H        11.40938855250391   -0.38452927007103   20.88377632207292
H        12.33336470241636   -1.02499149065703   19.49850661579335
H        10.77312884290707   -1.77629250176307   19.95421064462748

