87
CSD_code = QUKMEP | q = 0 | S = 0 | Stoichiometry = C32H48ClMoNO4 | MND = 6
Mo       11.24510585206192    0.34637732708040   10.11068963697745
Cl        9.36408308335446    0.31026981394956    8.71203490323390
O        11.25629900094215   -1.40033889936405   10.00116248406434
O        10.70782355914983    1.93278296116608   10.62779380994202
O        12.36199358753299    0.73330656849448    8.96550437867545
N         9.64105024717561   -0.23769966719112   11.87083183393008
O        12.24562217198006    0.22219930579921   11.71193521680835
C        11.34282324399072    4.49245719541180    9.38029373245536
H        10.38788800709280    4.97073595069953    9.16900392894334
H        11.29066506145782    3.44806695701296    9.06858314742984
H        12.11305036843393    4.97871643097829    8.78579293875026
C        11.57516716063732   -4.84808537727152   11.04447812912518
H        12.21930866631754   -5.69990366121212   10.91256937536476
C         8.48017932005986    2.96073242534744   13.25594761469423
H         7.68227546806862    2.52309731728433   13.83801459846091
C        10.40942142585242   -0.36597864357071   13.11900163417418
H        10.64209191196175   -1.42595192485488   13.26865442412749
H         9.83970554700449    0.00144455462074   13.98228051163446
C         9.90685066010659   -2.68737220991447   11.40376986661138
C        12.71924996176982   -3.03416212472317    8.10783456202844
H        11.96623851930218   -3.69685119533537    7.68444571379351
H        13.58810414850349   -3.03483697159916    7.45337842526416
H        12.32197838410236   -2.01832828678600    8.13368354819563
C         9.64108362737373   -3.88661684262976   12.04735745530869
H         8.76940208134900   -3.94064967307123   12.68011752643371
C        10.53904501649667    4.05867763906084   11.70943045038527
C        13.12597859718020   -3.51481295636935    9.50948102486341
C        10.46480209082567   -4.98835513266502   11.87550890885173
C        10.20564807048193   -6.32800586716221   12.54856366060701
C         8.87246009079948    4.27581911714445   13.48220283821090
C         9.89545003230100    4.79302237322757   12.69657212644751
H        10.20712684759211    5.80799868627291   12.85906800985578
C        11.02714280255351   -2.57316650695075   10.56751932402460
C         8.17204897471738    5.08670988220224   14.56276563789999
C        11.88913327592455   -3.67284653736481   10.38327208120081
C        14.06111004432111   -2.48499565965286   10.16448321376769
H        13.59123152054761   -1.49943726380050   10.23283500726268
H        14.96768817405100   -2.38449862917956    9.57182146926961
H        14.33652392143044   -2.81098411467890   11.16659723574971
C         8.97001823072377   -1.51354040102946   11.54230059615515
H         8.44280355416434   -1.36953556481623   10.58920994258182
H         8.22040319321097   -1.74478853211352   12.31679533671416
C        11.74547272064590    0.39576855985148   12.98633919309511
H        11.59641003334001    1.47183858128150   13.18501761826763
H        12.46698679525220    0.00663027362685   13.72398188528482
C         9.08265151556497    2.18840213767994   12.28137857239715
C        10.12077203731142    2.73133542942025   11.50592898040112
C         8.59222918130922    0.79517049685703   11.98238201948641
H         7.87077273580585    0.49871616411340   12.76220594197222
H         8.06096496197092    0.82054625621610   11.02038071860684
C        11.68309660420834    4.61787617447340   10.87339206106152
C        10.00738353493272   -7.39895774852683   11.46684699337116
H         9.16934105167833   -7.13382974613628   10.82609800064606
H         9.79981731035144   -8.36249234706962   11.92725552420793
H        10.89157185184308   -7.50248347728775   10.84474522147041
C        12.96338047092468    3.82453990887398   11.18453551609965
H        13.80061076511787    4.25318306321681   10.63819158116204
H        12.87165576336485    2.77601324002944   10.88696108431425
H        13.18710200427616    3.87068681684487   12.24980939194755
C        11.40936150057041   -6.69382388940255   13.42850822268588
H        12.31620404586897   -6.79441243947092   12.83956998301434
H        11.22783500493053   -7.63871521489317   13.93610256013647
H        11.57429514766745   -5.92454491054648   14.17988702427426
C        11.95359857624835    6.09661815564665   11.17406536361527
H        11.07490438374581    6.70465382417271   10.97156728906443
H        12.75994274920087    6.44936771639720   10.53505081782284
H        12.26108955214782    6.24127084295203   12.20726996233135
C         8.72562793884789    6.50825938488277   14.69151495933529
H         9.78004275956567    6.49631996022239   14.95681243014269
H         8.18844584800644    7.03479905281384   15.47771239438704
H         8.59446358124652    7.06463665719278   13.76679573717359
C         8.95713145876733   -6.31018039683965   13.43477775384148
H         9.05540433292344   -5.58143178316272   14.23612073691010
H         8.82150992924656   -7.28989946178679   13.88812097978452
H         8.06712885514134   -6.08498749980324   12.85212294013194
C         8.35131734306282    4.38182542739496   15.91507561865416
H         9.40894525675621    4.28335373527100   16.15030591120780
H         7.90931133369239    3.38949959610055   15.90782120446778
H         7.87462904102460    4.95944188466717   16.70402458041939
C        13.89746121352440   -4.83038968419653    9.35236956242520
H        14.26868129148887   -5.18890749670486   10.30982006158002
H        14.75560307459259   -4.66636065139431    8.70461347821155
H        13.27498358540132   -5.59741158819311    8.89698233793249
C         6.67835643990980    5.18630063088058   14.22220615327828
H         6.16181071007368    5.78066678128680   14.97278024247941
H         6.21271616767957    4.20561332624152   14.18543006056526
H         6.54610403786952    5.66202239432562   13.25313507002501

