87
CSD_code = QUKMOZ | q = 0 | S = 0 | Stoichiometry = C32H48ClMoNO4 | MND = 6
Mo       -1.62226358818114   14.15523560020632    6.35246200973976
Cl       -1.65901873097681   14.16727523087200    3.99323271800724
O        -2.79017593156140   13.00764541956670    6.48563049886734
O        -1.19347249295153   14.52084885540743    8.12471786326194
O        -2.52370260187185   15.64775325240269    6.29110238505715
O        -0.14157159019942   13.17672064587384    6.21575937653071
N         0.15650217458238   15.75194960568951    6.04331883438124
C        -0.02594307674873   14.41999623709809    8.76134049728190
C         0.23422658487607   13.47853675771306    9.77385724813864
C         1.51701531728613   13.44801694688195   10.30908544440607
H         1.72659251040673   12.72256349903163   11.07273691663478
C         2.54132004066631   14.29569142912075    9.90632187533422
C         2.25235570667461   15.22835106159323    8.91813752802948
H         3.01030803868538   15.91746004221637    8.57419179094923
C         0.99246450971788   15.29797234707786    8.35376416331768
C         0.65528631981005   16.32480340898279    7.30920433960184
H        -0.13944745772686   16.97632818377297    7.70131793530456
H         1.53999330561673   16.94985574273590    7.10506366819986
C        -0.27972725432428   16.86816982326809    5.18176629750927
H        -0.58761171538924   16.44578627815712    4.21660862525912
H         0.56486203235759   17.55433162449005    5.00888504819310
C        -1.44354158850448   17.65131391024704    5.74047735571444
C        -1.43888259618583   19.03729853745216    5.69792605779494
H        -0.56074415326496   19.52811747655349    5.31018986650186
C        -2.53172459697449   19.77392775960694    6.12837656019445
C        -3.63996891336245   19.07659097990961    6.60533022993296
H        -4.49305876520356   19.64348853470894    6.93483085492558
C        -3.69699616490337   17.69476947584371    6.67348362644523
C        -2.56925118739886   16.97303024768696    6.23362131093912
C         1.19668526267450   14.96225641536665    5.37238694155288
H         2.19452185977593   15.39441230955636    5.52843466998076
H         0.97354933641204   14.95207496277721    4.30174512647728
C         1.15501870931137   13.49989002595821    5.87732319470815
H         1.50819074347813   12.82633605236690    5.07955171824033
H         1.80215812398033   13.36129401015919    6.75850701378927
C        -0.83906395990845   12.49064496205854   10.21493281573760
C        -1.07933812296889   11.49697701368780    9.06807915916290
H        -1.48231303816905   11.99908384046746    8.18479742124207
H        -1.79343750604593   10.73807523363345    9.38050531059579
H        -0.14758102414268   11.00380479229661    8.79440327915689
C        -2.14210401019133   13.23219912152776   10.54033203139439
H        -1.96682206322159   13.99264457027485   11.29941225768832
H        -2.88274889549765   12.52997066952782   10.91622444012519
H        -2.54677296605909   13.70694217141991    9.64941622444336
C        -0.42968172050955   11.69586854086498   11.46152301548166
H         0.41782932487921   11.04511069382268   11.26037995725766
H        -1.26125781287727   11.06609038753247   11.76976154354700
H        -0.18581676681279   12.35997586951122   12.28785323035357
C         3.94463690329073   14.23590236218745   10.49214389060988
C         4.28175230008877   15.59135134728579   11.12901661818850
H         3.56471794455010   15.82535498176065   11.91269627883054
H         4.25714809166550   16.39229037684583   10.39557368392821
H         5.27677925191440   15.56243358585905   11.56787520373731
C         4.09450942657150   13.15594447327562   11.56667527438940
H         3.42438015411312   13.34030195784920   12.40267540485713
H         5.11422493665176   13.16333171741940   11.94641318964169
H         3.89632427539515   12.16749520177750   11.15946694239592
C         4.94183654128205   13.92863284220761    9.36550737802432
H         5.95095915625614   13.86039116024597    9.76610190928637
H         4.93128122508394   14.70325892263688    8.60370244417396
H         4.69383310343142   12.98071362043109    8.89255421119212
C        -2.56910088755607   21.29438353016598    6.09423742062785
C        -1.27231464804291   21.90313310411050    5.55380989830141
H        -0.42296586435576   21.63170837438113    6.17640623351907
H        -1.35470617797690   22.98795349395717    5.55418570128873
H        -1.08564989198814   21.58219753127108    4.53188374328969
C        -3.72242384688191   21.74550053943501    5.18729725782549
H        -3.58635330337845   21.35047808918445    4.18308653971661
H        -3.75112954411628   22.83149038306986    5.13106937289035
H        -4.68102295584152   21.39903481432211    5.56218432550666
C        -2.78803163643003   21.82536401471114    7.51806159326654
H        -3.73334869293814   21.48331144163618    7.92895095626488
H        -2.79319889827639   22.91312563899925    7.51435014202187
H        -1.98856565010797   21.48613162865852    8.17328358712142
C        -4.90573741255072   16.93797458114704    7.20812396771559
C        -5.41725556026832   15.96221676135012    6.13643375825739
H        -5.62364128351773   16.49470770551147    5.20971693883792
H        -6.33685573685229   15.49178810543215    6.47747103857694
H        -4.69222537283419   15.17162092010984    5.93330720125390
C        -6.05919413202385   17.87448297012232    7.58503931493007
H        -5.76957245645860   18.55939952602125    8.37881210928448
H        -6.89669179333865   17.28204635419247    7.94631914760241
H        -6.39901917365482   18.44404488340334    6.72316372498456
C        -4.48891139139081   16.16021023951119    8.46640402753961
H        -3.72414822474830   15.41542298757151    8.23366889178957
H        -5.34998470944625   15.64082090027791    8.88089679224410
H        -4.09867367437776   16.84186837469070    9.22082360870284

