74
CSD_code = QUKPES | q = 0 | S = 0 | Stoichiometry = C26H38ClCuN6S2 | MND = 3
Cu        6.22850976859959    7.65012255040295    6.96087763069297
Cl        7.84228054325901    6.42038995272071    7.97542269909060
S         6.61450586991610    9.87121101603045    6.44084581124500
S         4.14316407234745    6.70106502007539    6.61106619779070
N         8.53116793431705   11.55061241572511    7.16328584760584
H         9.45080939690502   11.65982905872445    7.57460305633643
N         8.79080655890089    9.39830980788393    7.86996359853051
H         8.45795435897645    8.42115717267219    7.94232142699369
N         9.96260471031526    9.75428618162499    8.43517704985744
N         2.86465107071433    4.79295915432316    7.93213064466233
H         2.93806552568474    4.01551213804418    8.57772245844535
N         5.03708053712139    5.13056347242683    8.54101827347368
H         5.94372594034644    5.61469998421298    8.42657962800813
N         4.91694189143969    4.12965721405454    9.43635877010245
C         8.05983080216639   10.30035651991397    7.18896307760624
C         7.98210162708007   12.62728650700740    6.37991703950100
H         8.12351029135211   13.55712338977287    6.93668618556869
H         6.91386028427870   12.43745759268695    6.26261234806444
C         8.64488080348529   12.72277608289147    5.00845045385436
H         9.71614335940729   12.88347993242530    5.10863603598154
H         8.21814131338338   13.54888270075621    4.44751108874386
H         8.47817629425038   11.80297884683951    4.45445944120729
C        10.62233336692671    8.85932147939513    9.06533401248097
H        10.24823831788727    7.83609042601257    9.14624259872083
C        11.88875450371416    9.14947858447929    9.69438110304440
C        12.45599925167206   10.42522831098366    9.66105533071985
H        11.92932447262116   11.21645220044138    9.15092085235861
C        13.66835957273830   10.66694506272070   10.27181404085091
H        14.09354555559011   11.66048252128687   10.23669693839939
C        14.35677074343525    9.65458085812385   10.93353054906866
C        13.79016643300706    8.38405040221025   10.96569916179622
H        14.30233321630189    7.57920794153888   11.47163797863944
C        12.57788725652174    8.13240064201727   10.35859550380510
H        12.15230635464290    7.13974985533334   10.39246674619740
C        15.68294768756907    9.93513510099217   11.59360588879647
H        15.92036479534332   10.99481571787112   11.44653576444537
C        15.60950779784272    9.66812438731969   13.09875862531020
H        15.41544142840241    8.61715927274522   13.29729900672345
H        14.81208683491098   10.25531918529640   13.54907446115956
H        16.54983473902341    9.93852579576961   13.57402956548561
C        16.79473517896082    9.10389049950039   10.94905715891311
H        17.75671674584096    9.35844993282730   11.38833704311762
H        16.84012356096936    9.29697193808266    9.87944225447227
H        16.62009070061409    8.04133819976762   11.09821029014767
C         4.00350619150692    5.46751269461227    7.74644061399990
C         1.69775725533094    4.89881935836757    7.09401373953001
H         0.81717379825521    4.72928241260976    7.71853623830427
H         1.66785650993694    5.91552121119123    6.69820518729652
C         1.73493465195526    3.89709098581816    5.94308047131526
H         2.60468970861287    4.08603929367075    5.31972575582292
H         0.84175787591716    3.99935694278168    5.33392510731894
H         1.78714958236586    2.87803716426129    6.32033135558648
C         5.93450996515970    3.83902231247473   10.15276511308064
H         6.87560092859121    4.38323436629764   10.04273126208103
C         5.89426041657519    2.78524690696491   11.13837124041584
C         7.02656825891396    2.51664445571043   11.90866279335253
H         7.92293812015596    3.10052565188627   11.75696702774909
C         7.00715331735582    1.51484786673328   12.85793417761143
H         7.89382384224200    1.32178604980327   13.44553662653265
C         5.86644700449340    0.74938812297352   13.07107638131295
C         4.73729945582387    1.01906873970457   12.30128984535164
H         3.83795405664475    0.43912947779758   12.44703172195190
C         4.74638461576999    2.01730448233615   11.35199110259469
H         3.86788332913215    2.22097666879871   10.75986743804461
C         5.86082647441872   -0.34270059203419   14.11044739750947
H         6.85090569177200   -0.37258718760689   14.57919659340886
C         4.82703808206754   -0.04981734170658   15.20047437562283
H         3.82070020431524   -0.04616210800384   14.78892697106673
H         5.01668174598027    0.92194492552871   15.65164134577683
H         4.87683714217103   -0.80872646547120   15.97819093405649
C         5.59864809123819   -1.70551021511225   13.46499278580325
H         5.66733347028521   -2.49379105277759   14.21145471944831
H         6.33090284463137   -1.90232012970378   12.68471180334312
H         4.60679589970310   -1.73950002410679   13.02104623658662

