91
CSD_code = QUKTEV | q = 0 | S = 0 | Stoichiometry = C32H50Cl2N2O4Pd | MND = 4
Pd        7.17462996045696   -0.00053662976264   23.94642733078962
Cl        8.28764754469448   -0.93795941052554   22.18518106182986
O         2.73981749197677    2.82203391957308   19.47748152131165
O         4.19364360452174    4.50473603532153   19.79036318080972
N         6.10284583563369    1.02572137686026   22.72186202948652
C         5.02145592331667    0.49020532686084   22.15365133906675
H         4.79408087716349   -0.54121561223618   22.42264021420353
C         4.23185711636006    1.19812832710950   21.26902651074121
H         3.35865644018536    0.75711303686890   20.81441750665670
C         4.57726712883935    2.51217385670624   20.95848443295601
C         5.70884523893434    3.06184235932569   21.55741947880638
H         6.00371778873510    4.07515065252232   21.33940791161978
C         6.44072788625154    2.28316599523212   22.43301522637361
H         7.33091466401962    2.66978647582878   22.92986160549286
C         3.72690264590627    3.27609115937357   19.99937798598281
C         3.46901671996663    5.32531131419208   18.87160551560842
H         2.56873740878953    5.69978192063900   19.37178751224033
H         3.15542120642554    4.71310541720632   18.01904528006731
C         4.36988128696785    6.47069896443476   18.43454656235532
H         5.26525343734646    6.05672794725885   17.96707970307719
H         4.68236216378450    7.03000906523424   19.31814816944698
C         3.65794997305030    7.40089646777540   17.45617579783456
H         3.33775022289540    6.83056351740508   16.58163101106246
H         2.76275429935862    7.80934469287058   17.93001508276263
C         4.56278341463104    8.54698697417697   17.00990042725967
H         5.46028078609832    8.13674104942420   16.54170022786574
H         4.87931909215285    9.11888390463190   17.88500529942550
C         3.86312819995511    9.47992884609260   16.02458985569086
H         3.54998927523426    8.90953173264281   15.14715700903313
H         2.96337821230159    9.88863267304797   16.49016868879016
C         4.76894505363510   10.62715335630948   15.58384989484945
H         5.07840522982236   11.19969214113348   16.46141136744995
H         5.67104643320283   10.21772392833583   15.12316730450953
C         4.07631253906164   11.55946540521566   14.59306558134208
H         3.17321330549701   11.96815129427740   15.05266089360939
H         3.76844049303425   10.98797584649752   13.71420493311159
C         4.98385024442463   12.70678912413153   14.15648682104866
H         5.88492390690078   12.29770637355830   13.69317603178204
H         5.29498153337601   13.27520237447587   15.03630328800777
C         4.29329250009869   13.64553190101096   13.17023632961032
H         3.98262553018693   13.07828206139450   12.28978574594874
H         3.39273298944435   14.05551602609939   13.63330372009962
C         5.20629549481907   14.78728958222903   12.74074316088806
H         5.51149889634653   15.37633675425169   13.60300732632275
H         4.69618488848869   15.44388495292820   12.03977721008781
H         6.10110600192934   14.39926251044423   12.25870904904584
Cl        6.06164345804220    0.93683954884866   25.70767571175810
N         8.24665950704739   -1.02680821160393   25.17064357632671
C         9.32792405597717   -0.49107567478442   25.73890320425452
H         9.55513581030214    0.54037152685318   25.46986296383875
C        10.11751558967398   -1.19876794448839   26.62371136752378
H        10.99062397468809   -0.75757965207751   27.07832939227227
C         9.77226313645371   -2.51282469615738   26.93438596458968
C         8.64079943302524   -3.06271301140900   26.33542996152452
H         8.34604979129583   -4.07603646217479   26.55353970239228
C         7.90889791009598   -2.28425256271779   25.45966010854676
H         7.01876833879547   -2.67103749300710   24.96284010523345
C        10.62272701486772   -3.27652675996305   27.89355829797118
O        11.60970131949582   -2.82226432149570   28.41549101341998
O        10.15611735877478   -4.50520413287031   28.10275442369180
C        10.88080740711441   -5.32553883736708   29.02166907571537
H        11.78097398161698   -5.70024088966387   28.52145915821087
H        11.19459049785805   -4.71309350111004   29.87398773671445
C         9.97994517834177   -6.47073927634219   29.45922159239256
H         9.08471265892193   -6.05657459848240   29.92678340161630
H         9.66721904778461   -7.03024821803450   28.57583163489195
C        10.69201227390064   -7.40075832886935   30.43766201448794
H        11.01246089214611   -6.83024462907389   31.31199723795057
H        11.58706377240374   -7.80940258994087   29.96371877906163
C         9.78716330003627   -8.54665380532909   30.88440016760070
H         8.88985821012799   -8.13621058925496   31.35279579696178
H         9.47029326416195   -9.11864589772709   30.00947806742359
C        10.48695961686594   -9.47955190702984   31.86964966498853
H        10.80040651718998   -8.90908883478223   32.74692912575664
H        11.38653062439625   -9.88843946530570   31.40388615319020
C         9.58108364711270  -10.62658997696020   32.31074999832811
H         9.27127098178965  -11.19913750438903   31.43331793074466
H         8.67918550083718  -10.21697046400368   32.77166242178292
C        10.27383698605139  -11.55895827224055   33.30139450052582
H        11.17675231848963  -11.96780852577846   32.84158306456928
H        10.58202604944649  -10.98748336316361   34.18015330683144
C         9.36622028193533  -12.70611752925123   33.73824146348778
H         8.46536484423505  -12.29687473398824   34.20183533654671
H         9.05471098254745  -13.27446187546663   32.85851350117624
C        10.05690414058910  -13.64500839874535   34.72426006974553
H        10.36796948502724  -13.07783195301003   35.60461742826791
H        10.95723092001728  -14.05516935266619   34.26089663107602
C         9.14380642746023  -14.78658588011284   35.15402918071317
H         8.83818889234835  -15.37554209320201   34.29184987612959
H         9.65401494534646  -15.44330895131140   35.85480381298983
H         8.24923876912951  -14.39838489872900   35.63637394042436

