67
CSD_code = QUKTAS | q = 0 | S = 0 | Stoichiometry = C24H36Cl2FeN4 | MND = 6
C        -0.12576138689014    4.01934698617457   15.07430953284805
C        -0.43941151354220    5.35285760137983   15.30305629365470
H        -1.35286138474085    5.77069077797247   14.90723441581290
C         0.43282497873989    6.13452709996848   16.04333661798551
H         0.21304601517474    7.17534289267306   16.23086396710580
C         1.58812211225741    5.55178948217087   16.53759021188324
H         2.29369493555638    6.11899322407137   17.12351026090375
C         1.81991261158859    4.21504470724373   16.25923246231316
H         2.70420835085312    3.71305629857817   16.62821446053542
C         4.10978641205531   -0.67938391554877   13.41428833554698
H         4.53974653942002   -0.31189038315581   14.33632675504796
C         4.24910067630554   -2.00518986343141   13.03892850762180
H         4.78472423860254   -2.69843947067265   13.66764148444861
C         3.68255228264086   -2.41160742076214   11.84210464018432
H         3.76145317419937   -3.43688838716724   11.51142579998862
C         3.01253251243247   -1.47334807739437   11.07366857608477
H         2.56375790999655   -1.75172751219303   10.13180761444987
C         2.92340107997574   -0.16426318769911   11.52892280499426
C        -1.04802609401391    3.11190691734513   14.30083634620409
H        -1.34352073026532    2.29435691817054   14.96447339350159
H        -1.94753429754554    3.67688443310416   14.00571518143203
C         2.23301315336198    0.90690641420815   10.72389777725957
H         2.97266026679567    1.67947119408264   10.49524170408067
H         1.86747709083349    0.47041509899785    9.77979168805803
C        -0.15166299581162    3.47636132199185   12.08570326043633
H         0.29243189844305    4.37383480221072   12.52135524159568
H        -1.10463255606656    3.76418154293127   11.61387922461723
C         0.81616729794099    2.87760308759106   11.04169382298469
H         1.74723508368342    3.44912428508200   11.06944621628930
C        -0.95694892614151    1.27600466292762   12.68359466326117
H        -0.97455534896648    0.61132592759470   13.55091844004490
C         0.00515718673705    0.67854835000168   11.63356107091104
H         0.35119239880032   -0.30030033053572   11.97198411093951
H        -0.50754368230115    0.54241082567210   10.66810991119179
C         0.24204503765869    2.95642170113609    9.61660946629554
H        -0.77873660430630    2.56780937498957    9.60910104314983
H         0.83927320010786    2.33316337267240    8.94787342866175
C         0.22709254002084    4.38487701809898    9.05698220334938
H        -0.19330360903599    5.05546049917212    9.81380895942738
C         1.63392441233811    4.86697242207031    8.71156678924151
H         2.08626788727067    4.21405042133833    7.96762247280747
H         2.27293900724190    4.88469274059794    9.59012974390587
H         1.59572630459876    5.87423605908419    8.30317448003445
C        -0.65904036190821    4.44363454003346    7.81254188676425
H        -1.68069829482867    4.15227204772818    8.04785865846344
H        -0.27899239486862    3.77190478776488    7.04536062520848
H        -0.67833781709848    5.45143187583316    7.40452223313154
C        -2.39098415478568    1.40158548811818   12.14112772127479
H        -2.98598718146378    2.01253981981027   12.82312076493294
H        -2.37467800792489    1.90543892422072   11.17212249226702
C        -3.08950238770541    0.04546735801801   11.97662070072297
H        -2.40978724963911   -0.64119584052697   11.46126832003225
C        -3.45897406844101   -0.56357313539759   13.32691948810161
H        -4.12676198303025    0.10036045978491   13.87238883182959
H        -2.57633500442793   -0.74202956360158   13.93494335170853
H        -3.96641745930559   -1.51477373869547   13.18319720092189
C        -4.34695860244516    0.21222507028697   11.12315383318224
H        -4.09914847532051    0.59658562216356   10.13581268566238
H        -5.03735400996340    0.90648748279723   11.59795129164910
H        -4.85387393858664   -0.74176243174124   10.99912602911090
Cl        1.26157691342551    0.23795818342369   14.87765981151182
Cl        3.13843882953251    3.45122216420456   13.29978061811107
Fe        2.09997771952968    1.85510017974060   13.99121481844707
N         0.99246158661031    3.46630348771508   15.54201775986102
N         3.46002455789663    0.21927871009016   12.68644261261872
N         1.17256828732449    1.53395655093738   11.49587263009419
N        -0.36128396861303    2.52275204449553   13.16284225331080

