81
CSD_code = QUKWEZ | q = 0 | S = 0 | Stoichiometry = C39H35IrN4S2 | MND = 6
C         6.62270514093243    8.29234944635621    3.85289978182409
H         7.43475425773732    7.68140518404389    4.21632660728754
C         6.72584407631492    9.68107802516953    3.90481979988439
H         7.62265660967653   10.12947278749207    4.30652618252299
C         5.70626612342980   10.48989357912082    3.45132767595622
H         5.76587226486032   11.56400224710241    3.48597690485973
C         4.55177540620602    9.90364386588051    2.93824630855959
C         4.46706785044593    8.49897217902678    2.88325655595336
C         5.49275038660924    7.68789287872904    3.33811054567407
H         5.40305826811774    6.61426411532784    3.28840307285646
C         2.52520873038924    9.70361993758883    2.03179118807559
C         1.30223219590188   10.21799818024325    1.50389159292564
C         0.25926654492161    9.42605868272952    1.02109494685512
H         0.35593091410371    8.34891547656811    1.02829031626926
C        -0.88065815860596   10.03580998420918    0.54776211509098
H        -1.70006459606665    9.44253119073010    0.17019055891648
C        -0.97129366976869   11.42356570777082    0.56047604183554
H        -1.86825206398721   11.89893493924790    0.18867077996790
C         0.06698372111549   12.20292089898006    1.04074940181535
H        -0.04608659911910   13.27842464357159    1.03133984343565
C         1.24144831734905   11.63218548132726    1.52857638058008
C         1.43627907146862   16.61922505936815    2.50791424623167
C         0.80613260300400   17.63313383223282    3.20913098435557
H         0.74250941632138   18.62654975650016    2.79404865638937
C         0.26856177773952   17.33414831003690    4.44553353953961
H        -0.22472760974457   18.10845319745965    5.01290599050388
C         0.35478437199793   16.04430790199105    4.96600724219039
H        -0.07812993780793   15.83541069342873    5.93327721163339
C         0.97952649255945   15.03332149891431    4.26825804265545
H         1.05952899308757   14.03179920571410    4.65451578844941
C         1.53895162125056   15.31283547825067    3.02377873939619
C         2.60654229374615   15.01776655805708    1.08933051325623
C         3.32861876818174   14.24491302594733    0.13001448489017
C         3.53498873671365   12.90645796477825    0.54225021984978
C         4.24829809629330   12.09716899318708   -0.34061357649140
H         4.44156920198434   11.06351125564351   -0.08807125418679
C         4.72061361217745   12.58328271040572   -1.54747076825481
H         5.26952658677589   11.92784661986277   -2.20916945590521
C         4.50048328393708   13.90362060702703   -1.92490667681487
H         4.87658727530621   14.26719028094554   -2.86953164380513
C         3.80217676686243   14.74185542203447   -1.08526596736651
H         3.62024602596691   15.77450422347917   -1.35013148081701
C         3.65261323791418   12.90984462515561    4.82981177533683
C         4.12336682038275   13.13127655582241    6.22458455637516
C         3.50915424834450   14.08129076312014    7.03281690099105
H         2.68536175125055   14.66364589736653    6.64157736796767
C         3.94834945764990   14.28317982643979    8.32909811870030
H         3.46511620962203   15.02338714919657    8.95066863411921
C         5.00375064285919   13.53961654938337    8.82944412361235
H         5.34580140007282   13.69839740472237    9.84168829586365
C         5.61945582661881   12.59188561069337    8.02956441081156
H         6.44330360323815   12.00944171591870    8.41662708620078
C         5.18215774873720   12.38729298246852    6.73314744685754
H         5.66181647779540   11.64489491219102    6.10900002134847
C         5.41060996796705   14.27142824404602    3.88843895445244
H         6.03448260454832   14.01064593303520    4.76191906158950
C         6.27185483889066   14.21027304142624    2.62633898768474
H         6.74170780742427   13.23635059503663    2.51354755080420
H         7.05248201677031   14.96642950460978    2.67041523114426
H         5.65373803430322   14.38832925415314    1.74935669928570
C         4.90563716533894   15.70822439833463    4.09091477013952
H         4.37540622406187   16.04776233629132    3.20421202023461
H         5.74331698634201   16.37884115105160    4.27020528505408
H         4.23046122515439   15.76091276833855    4.94251659372509
C         1.81387283879664   11.51646981262657    5.54288477473216
H         1.81774925249938   12.06802206553064    6.49975342403964
C         2.45925995658413   10.14519936708714    5.79510474443499
H         2.37053810195398    9.52060554245520    4.90932327695254
H         1.96224606506000    9.64292411927331    6.62231234224226
H         3.51359234449737   10.25692756458535    6.04006884680564
C         0.36707576491962   11.32004774116806    5.08829075023389
H        -0.15959909478231   12.26890651643265    5.02150428271868
H        -0.16172405437005   10.68139049438333    5.79223971366308
H         0.34980131602738   10.85587731092541    4.10477041454462
Ir        2.84452580848756   12.50525674638786    2.40116314226671
N         3.44274634755883   10.54716009646565    2.45942899030251
N         2.20596492265563   14.44201724114909    2.20501033449243
N         4.30977910719307   13.34584586130398    3.77316232490492
N         2.54286051748250   12.25835266899879    4.54281112365573
S         2.94133858080904    8.02189206640119    2.18970865206226
S         2.20129476096271   16.70321153954228    0.94453753280657

