120
CSD_code = QUKYAY | q = 0 | S = 0 | Stoichiometry = C59H53ClN2O2P2Ru | MND = 6
Ru        2.87327609456424   10.23128636499535   12.09566431625792
Cl        0.54318473557696   10.00420914996224   12.56216013765372
P         3.36733277999956    8.24054867620876   13.19993116080752
P         2.20601514388199   11.83914516197323   10.52941751881486
O         2.64530518121452   12.12021663638673   14.39417835318496
O         2.83799748800513    8.85916645670808   10.51260861107134
N         4.84642058047236   10.36446642369898   11.43939273346330
N         6.46380578083413   12.73069107559613   13.49928725509883
C         2.83054223269136   11.40304407037531   13.51354651859507
C         5.85910669067823   11.08202843982600   11.91803709862881
C         7.08796084368377   11.18991768483916   11.22738643093587
H         7.84718555771145   11.81348415105371   11.67140692143067
C         7.28252262621944   10.51838066089482   10.06095755025044
H         8.21526356619362   10.58323956738700    9.52082232816681
C         6.24234246229569    9.70790852692427    9.55176350926896
C         6.34701253437725    8.95260108889119    8.38108035062089
H         7.26964265538294    8.97900476116312    7.82194383738964
C         5.28293567139708    8.18636207278482    7.95341371162829
H         5.37599143372692    7.60651841334368    7.04592032307311
C         4.09275794731311    8.13885964204913    8.65769420564591
H         3.26793611223851    7.53220513967386    8.31508519256131
C         3.92468070050773    8.88357444934803    9.83090221943872
C         5.02629491539708    9.68436337019461   10.28653811431854
C         5.73533347102554   11.73796219414992   13.20413855229709
H         4.98295042012046   11.31536272517942   13.88259141536203
C         6.45864218260698   13.37512929114058   14.72142045780879
C         6.80913252717981   12.73115953777407   15.91765632587592
C         6.85918925728775   13.48687407966759   17.08051177967085
H         7.12253109406696   13.00828918707317   18.01184020566271
C         6.56559147304875   14.83610373684063   17.07538169750884
H         6.59721384978684   15.39944079233226   17.99629223689563
C         6.23041825367778   15.46480083043638   15.88898472306991
H         6.00046525209599   16.51864403085309   15.89369756833121
C         6.18714359084882   14.75424550227872   14.70370551781087
C         7.16129343037014   11.26198885312533   15.96084423694898
H         7.19449521586840   10.87734341480351   14.93564893991398
C         8.54642865153986   11.03799480907660   16.57286906814696
H         9.29287981064065   11.62520232662326   16.04225185445837
H         8.81816776109670    9.98632488604455   16.50320604060141
H         8.56559538870876   11.32398122179514   17.62097037893357
C         6.09629011117991   10.48215843595336   16.73680176807288
H         6.03790739579813   10.83350706396062   17.76400241134186
H         6.33646419525779    9.42069645760839   16.75136923613504
H         5.11366107128343   10.60637811644882   16.28417915028548
C         5.76615511968059   15.38429791501554   13.39808635183361
H         6.19810412154000   14.77532306568101   12.59466379994904
C         6.26010800083417   16.82050475373147   13.23550049245374
H         5.73228900981603   17.49656966665125   13.90340616935386
H         6.08606401561869   17.15649630222166   12.21523144137133
H         7.32565513080629   16.88439190993238   13.44404561723646
C         4.23992608181950   15.32664388761823   13.27779190016898
H         3.88374521193741   14.29925586844407   13.32792023833087
H         3.91362772569712   15.75816662642718   12.33370437588721
H         3.77548302797491   15.88248291987048   14.08952915018900
C         2.38003627903594    6.74399736551255   12.86255545341220
C         1.22431302867280    6.77666727938176   12.09542859222813
H         0.87853544737268    7.71180437767850   11.68349793679072
C         0.51031085868906    5.61127821704111   11.87196022066504
H        -0.38890202268712    5.64252380542531   11.27442497714654
C         0.94186556012439    4.41372343031703   12.41367501468109
H         0.38324930238117    3.50565271464667   12.23905389722599
C         2.09319948695816    4.37905205698201   13.18616483277691
H         2.43126607817933    3.44597108396073   13.61356257853310
C         2.81034852565378    5.53700457743030   13.41235339739167
H         3.70873397437217    5.50719115290870   14.01338238115012
C         3.35030990701167    8.21335394943747   15.02105950491421
C         2.30464308257559    8.90333894148819   15.62922630871470
H         1.59271331814114    9.43798682883794   15.01082358738102
C         2.17591710867953    8.89824752357054   17.00549007508171
H         1.36582418489537    9.43857775415328   17.47176940666903
C         3.08673746530924    8.20110213424940   17.78284293039611
H         2.99025738143697    8.19811959743702   18.85847574642904
C         4.12167840650774    7.50512749145279   17.18083724818446
H         4.82908468520948    6.95730040214098   17.78690975775361
C         4.25649540153143    7.50687465597281   15.80371632673391
H         5.07359320321671    6.96816690038703   15.34332552138292
C         5.03932631823644    7.69652846228696   12.73629115692727
C         5.23787157622879    6.82070084963977   11.67343689769365
H         4.38821786571723    6.34384565042226   11.20438380235167
C         6.51806297475430    6.56611244516969   11.21458529855247
H         6.66394344600754    5.89120749174721   10.38427448083072
C         7.60650791364848    7.18420600065970   11.80672972125175
H         8.60354386583428    6.98990191629079   11.44042651348513
C         7.41608830108300    8.05555424151971   12.86763081368846
H         8.26357977482104    8.54038040762526   13.33057593213289
C         6.13901626035980    8.31759663175000   13.32522545968150
H         5.98064966259787    9.00647273054286   14.14394310836102
C         0.86898743750432   11.41715280762315    9.35996055233472
C         0.34168954585528   12.42064695268620    8.54862956973977
H         0.71441344992134   13.43226734261637    8.62781073200658
C        -0.66000450960341   12.12469268133566    7.64474834775300
H        -1.06554338095786   12.90707286019134    7.01954921896274
C        -1.14687845277077   10.83066698261470    7.54244726668215
H        -1.93463993976266   10.60508701443349    6.83846981320814
C        -0.62247500864943    9.83163253738193    8.34324481484506
H        -0.99870222388785    8.82206441709480    8.26567947919899
C         0.38322861877637   10.12046542864562    9.24940379351577
H         0.79427741968388    9.33733091474450    9.86810428590519
C         1.61925271336002   13.46140924961923   11.11889964254392
C         1.96786156979632   14.66472421119657   10.51259127667945
H         2.65782570086275   14.67734497634011    9.67974033825448
C         1.43577680119671   15.85378417103316   10.97878990557526
H         1.71063211162677   16.78454063666901   10.50293629400316
C         0.55446952961680   15.85402335947835   12.04700015151236
H         0.14581433157710   16.78614180071594   12.40839871497599
C         0.19538923997167   14.65771470750634   12.64516857053163
H        -0.49704713931201   14.65172796329526   13.47346940759801
C         0.72015484876923   13.46536224499132   12.18196807175825
H         0.42708867540950   12.52844667005902   12.63743775327160
C         3.57739228469435   12.25968555522874    9.41176320174131
C         4.61712825390552   13.04341880656639    9.91116538909818
H         4.54431694525830   13.44573987544303   10.91400523453156
C         5.72759913294414   13.30081977530440    9.13090865381376
H         6.52657924254158   13.91460952395943    9.52019314576097
C         5.81984603343399   12.76163602772949    7.85716586995110
H         6.69166180328809   12.95748009127867    7.25073731009016
C         4.79884303296693   11.96653202747484    7.36455207009832
H         4.87467377379248   11.53732638212444    6.37651656565946
C         3.67939070702132   11.71324106756959    8.13732197398326
H         2.88451324523359   11.08759947719887    7.75460220378354

