99
CSD_code = QULBEG | q = 1 | S = 0 | Stoichiometry = C48H46IrO2P2(1+) | MND = 8
C         5.55309270781020    5.14670987809237    2.65899782211008
H         5.30126601665109    4.21934025068842    2.16140812462763
Ir        3.66502644790627    5.20063405991391    4.34455038184075
P         3.43307677114598    2.88153734105623    4.54793079524775
P         1.50906565468256    5.62500813506380    5.02182866201530
O         2.29167036552354    0.17050447312320    3.37708308999802
O         2.59514868819671    4.79188517262282    2.49290631393328
C         3.96207840272775    2.01246788870948    6.06206454743964
C         3.57523669092492    0.68789922013941    6.25030674252741
H         2.97940343333732    0.18286701723096    5.50452640259077
C         3.98947085476968    0.00160993874396    7.37760746192456
H         3.68723467932833   -1.02503941963062    7.51692482092695
C         4.79131660355605    0.62399217361817    8.32071447633625
H         5.10780415950616    0.08627616356829    9.20115395006489
C         5.19434421284837    1.93502788829296    8.12645374936784
H         5.82938541028850    2.41979418116085    8.85234437755931
C         4.78468289210106    2.62610643844521    6.99998485542982
H         5.09750940205457    3.64879223200997    6.84519939055009
C         4.42206190131396    2.04989048436936    3.26959946263288
C         4.00309163821661    2.07942431517060    1.94214966779745
H         3.08317801306061    2.58479028517247    1.68925729074341
C         4.75782558621009    1.46521247624447    0.96152003865765
H         4.42076041262160    1.48070815973328   -0.06452204698912
C         5.94246040584409    0.82699407361241    1.29549771384301
H         6.52842968431012    0.34199988378124    0.53006082020550
C         6.37121032275617    0.80970760815460    2.61211021503376
H         7.29239484495998    0.31228801169272    2.87437504211975
C         5.61892329853389    1.42169669075758    3.59935838793289
H         5.95258399475323    1.39458851946438    4.62697477091607
C         1.69416121999722    2.28475193738669    4.28975572404336
H         1.34223599099317    1.93421489824938    5.26525195671035
H         1.08626647684154    3.13662390579370    3.98440946308714
C         1.58293172556056    1.14761419049924    3.28989619170942
C         0.59789068071819    1.32239282386860    2.20363825327012
C        -0.58819975288336    2.03789937280689    2.36211716425499
H        -0.84914131420742    2.46151641163306    3.32093725897605
C        -1.46503796790573    2.16358720996906    1.30137214966782
H        -2.39073012592193    2.70273205422699    1.43243129319620
C        -1.16281908227485    1.59978432320280    0.07216280324961
H        -1.84727064835200    1.71277786026574   -0.75431650233933
C         0.00982461614686    0.87997654468862   -0.09079216429167
H         0.24066679611739    0.42966485891831   -1.04393195910759
C         0.87804079773009    0.72803393574090    0.97196187232766
H         1.79099482728001    0.16029348205762    0.86966404874927
C         1.20708077114827    7.26702745622249    5.74723953021038
C         1.60384272913070    7.51466388869028    7.05890468059606
H         2.09454232590017    6.73273038932357    7.62040845213801
C         1.36713666719260    8.75166992099649    7.62730213061600
H         1.67264183181039    8.94421824006886    8.64440138622249
C         0.73570398741599    9.74496354026518    6.89307031854852
H         0.55002602376798   10.70943042521626    7.33983248065542
C         0.34052789938877    9.50091904073944    5.58816341099703
H        -0.15442556568798   10.27288899264940    5.01868144916477
C         0.57740194449708    8.26516610565984    5.01210226749645
H         0.26732529471350    8.06925338756142    3.99426368832983
C         0.75534786800303    4.55614654584525    6.29846670077328
C         1.53650954831689    3.96294714343795    7.28334733792347
H         2.60162943484803    4.14037475360888    7.28917228311748
C         0.94919776042550    3.15417904055581    8.24006055682700
H         1.56154374272439    2.69058413890890    8.99861047153201
C        -0.41988797370508    2.93998608616252    8.22156209670855
H        -0.87803023934072    2.30767801934393    8.96624090011906
C        -1.20344935118435    3.54211627948478    7.24983437869874
H        -2.27109458303878    3.38306892433020    7.24138264629811
C        -0.61999082033396    4.34853105882740    6.28890822614522
H        -1.23234446582798    4.82079233780535    5.53391574092405
C         0.61349655310615    5.48670146054592    3.50749919205274
C         1.34210105955926    5.07016433505648    2.41694207913231
C         0.70991122989492    4.90857119871115    1.08397746467861
C        -0.60369230015814    5.28890633748435    0.81601787905621
H        -1.21616798761059    5.73473411207925    1.58381759444134
C        -1.13992413548063    5.11472917894410   -0.44533714569598
H        -2.15741711004686    5.41985330161236   -0.63873683918909
C        -0.38140139462875    4.55532271420364   -1.46037314353218
H        -0.80648632573406    4.41933945414864   -2.44295977113473
C         0.92841617168820    4.18485795536203   -1.21020528187770
H         1.53204655485952    3.75940872348371   -1.99786728505389
C         1.46892423126323    4.36779039055867    0.04704353789723
H         2.49789082978998    4.10094683776922    0.23684168382609
C         6.08528790012499    5.09468706331328    3.90420910109884
H         6.32384987944184    4.11839915647738    4.32078901642762
C         6.71930433031905    6.25416871534640    4.63015487277206
H         6.82834043572018    5.97740384576889    5.67943496930900
H         7.72878088621865    6.39771052440858    4.23146730392509
C         5.94983284169854    7.58855083565069    4.55043491955639
H         6.28237816980863    8.16420838246541    3.68566054196451
H         6.20520004653935    8.17108578098314    5.43661418080204
C         4.44387540696705    7.47348386445166    4.48407013621130
H         3.92231194436524    7.87153987995354    5.35024489225659
C         3.71443393766072    7.33022105392481    3.33487260789990
H         2.67055524807689    7.63622788648787    3.36741516945731
C         4.23492940571784    7.18535247489077    1.93447246499411
H         4.38219698763189    8.19061291758350    1.52359281423109
H         3.45782139203870    6.70790730440525    1.33420960301629
C         5.52885121635934    6.37081758768776    1.79114006660159
H         5.61321143586481    6.05676129631986    0.74881089152159
H         6.39817361962322    6.98891131215896    2.01560129286247
H        -0.44435784289908    5.68581975836813    3.49035288515447
H         4.22964281628195    5.33029129332649    5.75219629034530

