117
CSD_code = QULDUX | q = 0 | S = 0 | Stoichiometry = C58H50B2N6Ru | MND = 6
B         5.00368339264148    3.75187222123066    0.25733926991546
B         2.96986969422306   -3.62895514683977    5.08629416071436
C         5.37952697984497    2.94129254830832   -1.09908907317565
C         4.50778705016037    1.99237853413640   -1.63177106437916
H         3.55461029073806    1.81668404992732   -1.14518480449734
C         4.82020700029967    1.26884357350666   -2.76937015996489
H         4.12391393083819    0.53253813810348   -3.15185635993527
C         6.02280139735751    1.48875920250458   -3.41911618841716
H         6.27396272038842    0.92645516015062   -4.30809031096323
C         6.89486142670015    2.44374561152219   -2.92405818969779
H         7.83123125087818    2.63184593627803   -3.43266072145048
C         6.57453497928496    3.15445583834480   -1.78019809634629
H         7.27086593535009    3.89103172218848   -1.40317287227721
C         6.30961271819296    4.21972871879071    1.10777071149204
C         7.33242093652095    3.30955741336985    1.37266071469623
H         7.27975391870444    2.31745355234028    0.93859094162826
C         8.42097618127827    3.64105462402603    2.16067866594969
H         9.19838739719292    2.90975145984442    2.34570853167245
C         8.51366858949043    4.90817317487293    2.71119478932071
H         9.36201309405210    5.17497808937390    3.32694825731394
C         7.51306745559648    5.83124565423445    2.45920511967991
H         7.58016286577762    6.82503000613581    2.88119752940529
C         6.42723325073466    5.48579874441982    1.67246526608263
H         5.65247296153035    6.21693907199383    1.48756027631163
C         3.96827434665744    4.94496017780054   -0.06237948913908
C         4.29097702576874    5.91226461747497   -1.01195301580086
H         5.24067282223434    5.84374617137662   -1.52488656150476
C         3.43031296253049    6.95195216216860   -1.31141834499888
H         3.70860527486939    7.68989112923119   -2.05206081617016
C         2.20920476771605    7.05102019750642   -0.66514869634064
H         1.53235130599123    7.86204218710278   -0.89659242307947
C         1.86422432020258    6.10134860392445    0.27966134675572
H         0.91226069884076    6.16900912565977    0.79111924912207
C         2.73543208429754    5.06622053551766    0.57269588949448
H         2.44716397153887    4.33472310251527    1.31930209400399
C         4.64947703645618    0.53860759746648    5.61211698197087
H         3.87145107906028   -0.20854905786156    5.72900798426079
C         5.26326888892957    1.05899502606124    6.73614597111531
H         4.94839789650798    0.71860419418281    7.70977818102183
C         6.27118031626831    1.99978176731725    6.58584083876756
H         6.76846401143149    2.42572182150175    7.44300872522040
C         6.61810444627982    2.37463309085043    5.29639962951331
H         7.38817638670121    3.10567514398100    5.10785197089125
C         5.95757404980792    1.80402456433862    4.22448752897927
H         6.21837073775933    2.10881415771016    3.21633162885141
C         1.98698644688543    1.65678197805597    4.21252202935166
H         2.79189468661961    2.38374949374758    4.20825418459980
C         0.79319460674609    1.95314081953736    4.84193770630789
H         0.67636847186972    2.90130093085352    5.34241025317250
C        -0.23731675083269    1.02440620259083    4.81857448172987
H        -1.17782647039394    1.22374567848972    5.30713609806384
C        -0.01601620562880   -0.16785994668356    4.14742514876509
H        -0.76973939471487   -0.93738761250378    4.09758119264535
C         1.21005445345437   -0.38771563101751    3.54630909566833
H         1.39123249922466   -1.33387543591012    3.04873154559256
C         6.10243090699520   -0.08297139413852    0.58858958563124
H         5.29296740413521    0.32721595299228   -0.00474235539852
C         6.87363727136125   -0.81487160899320    2.61270459535605
H         6.66431530960286   -1.03908072765884    3.65305275155145
C         8.13347478385279   -1.04943963159425    2.09613287777476
H         8.90797184796356   -1.43848454134367    2.73792253321666
C         8.38097935757846   -0.78077805288343    0.75761832032272
H         9.35596224516457   -0.94613042475974    0.32746617043525
C         7.33309560585758   -0.29217355643726   -0.00670246537803
H         7.45753592471509   -0.05392479337453   -1.05101760586058
C         2.09129378861380   -0.08553662705713    0.48413672986465
H         1.80227913616975    0.87729843234279    0.89036157736332
C         1.43830070482307   -0.59047465015372   -0.62404775393685
H         0.63801145134841   -0.02538787194535   -1.07465379231638
C         1.83059264998062   -1.81492136047398   -1.14296863540116
H         1.34243989273133   -2.23590363667422   -2.00754914287981
C         2.87125269117251   -2.48010725134413   -0.51287841402600
H         3.21559169293406   -3.43831055019112   -0.86799992663640
C         3.46993049400087   -1.90573686700481    0.59217433927905
H         4.27558169143184   -2.42278202735970    1.10135068884135
C         4.10303910268380    1.82672960052018    1.81261750064080
C         3.95552492487224   -1.66750125841597    3.63108710752653
C         2.98731502305612   -2.94220521367624    6.56140838382386
C         2.28123640303275   -1.76148638634164    6.78940486863910
H         1.66567309401472   -1.35481318510952    5.99502415203571
C         2.32973156831140   -1.10261681584390    8.00563181458263
H         1.76835424416050   -0.18721390267797    8.14840915408621
C         3.09615416315472   -1.61622830221843    9.03806598502945
H         3.13770427548248   -1.10804047935445    9.99197802343416
C         3.80214874317743   -2.79028691321751    8.83835984552549
H         4.39878852788988   -3.20162652626930    9.64149234368582
C         3.74908029002758   -3.43708611351849    7.61517818418710
H         4.30876213810516   -4.35136320539592    7.47432755331550
C         1.47502153907809   -3.77636722143410    4.46734674210942
C         1.27080524719169   -3.79075857023942    3.08805891583111
H         2.12721911994963   -3.73205859268875    2.42546098114310
C         0.00473188406686   -3.88198313893997    2.53680584704404
H        -0.11949699416677   -3.88188736169846    1.46080587997066
C        -1.10281423662256   -3.97537902233902    3.36235781698697
H        -2.09529152284669   -4.04588550875835    2.93858732206838
C        -0.92434592337685   -3.98836482533656    4.73550535847778
H        -1.78292699308976   -4.07417647715412    5.38843569420477
C         0.34673395073221   -3.88780167152707    5.27461059777794
H         0.46695891465702   -3.89171462684538    6.34935475155987
C         3.75958123066745   -5.03188380675959    5.01337764687995
C         5.00362041825405   -5.16944917681766    4.40410815063144
H         5.47332274786184   -4.30315140997350    3.95193274940453
C         5.66320743010679   -6.38589825884581    4.36275258698381
H         6.63069649721036   -6.46129400007029    3.88247063875539
C         5.08873337040361   -7.50572219009836    4.93683810354952
H         5.60106875553990   -8.45765905797947    4.90853813269614
C         3.85070238608689   -7.39482743020590    5.54805537850581
H         3.39332068766351   -8.26524795353614    5.99940252684336
C         3.20058989091511   -6.17517114254636    5.58088520288890
H         2.23334017492477   -6.10081457117301    6.05908249710820
N         4.37789770579081    2.73469650946921    1.15309762728277
N         3.63462302692322   -2.60037661672385    4.23257246073507
N         4.98142391946449    0.89568765136806    4.36333962115215
N         2.21389550909463    0.49965466201487    3.57458161354719
N         5.85941265611031   -0.32813052575506    1.88347720134165
N         3.09831790917552   -0.72179658872908    1.09811528870181
Ru        4.03529115929885    0.08277012050139    2.72737086952959

