127
CSD_code = QULDIL | q = 1 | S = 0 | Stoichiometry = C67H56P3Ru(1+) | MND = 8
C         5.99298901131326   14.21570734244123   11.80583022516477
H         5.26705986023440   13.68791208669518   11.19870766148033
C         5.78476860783773   14.67236299452779   13.12818212958127
H         4.87032334792077   14.57091160212407   13.69512568909770
C         6.89111462140796   15.48163067857901   13.48915159613148
H         6.94635735439025   16.11817371594069   14.36005634021677
C         7.75828931487689   15.54929858576787   12.36529697814644
H         8.61487857544023   16.20690406659163   12.28575874465694
C         7.21620909403966   14.76508273628771   11.32981676944497
H         7.55807472456500   14.73506626778990   10.30523380060332
C         7.40079741980340   12.40989668274825   14.88356742568456
C         6.63484634628540   12.69786405965693   15.95974250078349
C         5.70106741657530   13.81544916919113   16.23505302953130
C         4.32901797829461   13.61643456378750   16.10950715899683
H         3.96250259164604   12.65715529049018   15.76869086777099
C         3.43985170117762   14.63038061988887   16.41465815701691
H         2.37798944911737   14.46548353949372   16.30733450725910
C         3.91061816669226   15.85386898129146   16.86201852025202
H         3.21727479263003   16.64569385429879   17.10089162161850
C         5.27208189356718   16.05355726714724   17.01354644206413
H         5.64162617068292   17.00087228303063   17.37803375450290
C         6.16219278658084   15.03800907960122   16.71039367748788
H         7.22335164885633   15.18669365472778   16.85597542453302
C         5.34000323921974   11.72455596556843   18.45379681156122
C         5.19819766009733   12.89121442771891   19.20379747735943
H         5.97518621140219   13.64314484766442   19.17667327246221
C         4.06891290547890   13.07721007166697   19.97647102755534
H         3.95674363265788   13.98119456306371   20.55483531799660
C         3.08236478988064   12.10319531946617   20.00827869568820
H         2.20006448307720   12.25057695099870   20.61178420203277
C         3.22877601959383   10.93887051810024   19.27211625512994
H         2.46361111403241   10.17832610522646   19.30581223864366
C         4.35376456029418   10.74576791382771   18.48940216664365
H         4.46943990328047    9.83591862418772   17.91746111923880
C         8.20615952149566   12.05565343616338   18.40516904589905
C         8.25312135380265   11.65912550943900   19.74028810678800
H         7.44500620624205   11.07276471926373   20.15695474523768
C         9.33327148624245   12.02495656695560   20.52115930711696
H         9.37531508621265   11.71991853750501   21.55566827879302
C        10.35648070290650   12.78912843160788   19.97912647231434
H        11.19142293440746   13.08140375650600   20.59727329829444
C        10.30854049301888   13.18080537933996   18.65105743496926
H        11.10236354289938   13.77825507443310   18.23015898527583
C         9.23679149748926   12.81049838050242   17.85895289905314
H         9.19376107858062   13.09844153672348   16.81726577662061
C         6.99612584943754    9.87803750309851   16.87098299350976
C         8.02219824358429    9.08716402950110   17.37506258013554
H         8.74665262092669    9.50947634720064   18.05693249659627
C         8.10666416640374    7.75922489231468   16.99397900898728
H         8.89931234286792    7.13997237800357   17.38633534882009
C         7.17564888499783    7.22236252253011   16.11860521878822
H         7.24040344927551    6.18335344338023   15.83322026221193
C         6.16140230359155    8.01642519757434   15.60378547256281
H         5.44494789929864    7.60404638065574   14.90930987839868
C         6.07077819024679    9.34502151022227   15.97548423279607
H         5.29883503535729    9.97937104830909   15.56086026252815
C        10.50227085172081   15.00569581014167   13.99955898560796
C         9.80211900214312   15.55150373538475   15.07238627246880
H         8.95737762221347   14.99882551561674   15.46672512710679
C        10.16955594813307   16.76954612036797   15.60906092389126
H         9.61964770340354   17.18615270187199   16.44061462120887
C        11.24617807423524   17.45957059499998   15.07303189003958
H        11.53260215433828   18.41683652199750   15.48121011960156
C        11.95569487578802   16.91715355145339   14.01488389893906
H        12.79980471084579   17.44954752002450   13.60254870520389
C        11.59474080003502   15.69081216742227   13.48066379670446
H        12.16709455387145   15.27133567930012   12.66599124028720
C        10.81163302399072   12.32988918482249   14.66712297168493
C        10.44987409670810   10.99135036654791   14.78249969644423
H         9.68001549411663   10.60446409749187   14.13175383895628
C        11.07850124226909   10.16242009348361   15.69217993698082
H        10.78191973061004    9.12605929153027   15.76342291920788
C        12.09019223683936   10.66143210332873   16.49570050518131
H        12.58585053081118   10.01963558508756   17.20836665480171
C        12.47616141687113   11.98526529141882   16.36897919647098
H        13.28131071838453   12.37102096088202   16.97676423946996
C        11.84289627459709   12.81911508219405   15.46346648794872
H        12.15865518921406   13.84831045130916   15.37717036773274
C        10.94980463189808   13.06908283992543   11.95371967121659
C        11.73988870871153   11.93544158106737   11.79924290479644
H        11.80546387432241   11.20794879334550   12.59502810187317
C        12.44878549490302   11.73996290783689   10.62599345164690
H        13.06308770448836   10.85885403019687   10.51601149426515
C        12.37808679100909   12.66709640221477    9.60016717105773
H        12.93710363321680   12.51222157404999    8.68990249073640
C        11.58668371009538   13.79638426436748    9.74428065445878
H        11.52730929379581   14.52305986794664    8.94726953847316
C        10.86822655085647   13.99047811098152   10.90890475007680
H        10.23848789135102   14.86387675047001   11.01736458443940
C         5.79810526224104   10.48812813264141   12.36675583474680
C         5.54862338066292    9.21734817274078   11.84926237999294
H         6.28875410090043    8.73707798206947   11.22416619247794
C         4.35743709166599    8.57516223040910   12.13013731549621
H         4.16941059312573    7.59225066177749   11.72403901116490
C         3.40033204588267    9.19193322174132   12.92222935592481
H         2.46925733566148    8.68860148392522   13.13561478040899
C         3.63826202698419   10.45753926683335   13.43044987618218
H         2.88755270146787   10.94361003108795   14.03793608359922
C         4.83271559174730   11.10196746700873   13.15368137341087
H         5.03340235187787   12.08809306220687   13.55303729128978
C         7.16556847962843   11.64485907938158   10.17709062743040
C         8.22711713388767   12.26118538302145    9.51752881380587
H         9.09427815663383   12.56824446451606   10.08714695346707
C         8.16835031343890   12.50103522070206    8.15806190405507
H         9.00335125686264   12.97141965024823    7.65940269732889
C         7.03592732590950   12.14651868828714    7.44241064987562
H         6.98355155591662   12.33682931071146    6.38128922865048
C         5.96592500420558   11.55984160365544    8.09627853232099
H         5.07561021502192   11.29624612076019    7.54489996727260
C         6.02530239358914   11.30809009865188    9.45671633376060
H         5.17796880526800   10.85472005915489    9.95047543921365
C         8.49508714208160    9.94743631395191   11.99776094835303
C         9.47163294519172    9.72516163187939   11.03450163940579
H         9.56560037695128   10.38669965665814   10.18749018719539
C        10.31988986903036    8.63571248032805   11.14121228703566
H        11.06901117666306    8.47024199053945   10.38157340234734
C        10.20702304246448    7.75820229905040   12.20540168105045
H        10.86817653769955    6.90833237109120   12.28022545583918
C         9.23494109120294    7.97143579545876   13.16984604524277
H         9.13217854767897    7.28994716758172   14.00176399783285
C         8.39023376005589    9.06003648727694   13.07007684291307
H         7.63010117184968    9.22616630197465   13.82217852419270
P         9.92467816966124   13.36336069778253   13.43615524869612
P         7.34899570314229   11.37978091147284   11.97750941348549
P         6.78649038974014   11.59953532373503   17.37703376141969
Ru        7.64433406885224   13.37680545563935   13.09269125358366
H         7.96014806797972   11.47390316452160   15.04644774801383

