82
CSD_code = QULLEQ | q = 0 | S = 0 | Stoichiometry = C27H46Cl2N2O2PdS2 | MND = 4
Pd       10.26350966372924   12.67140541795762    1.10509563894282
Cl       10.69924075056706   10.45994611178337    1.23168716551146
Cl       12.40915839016640   13.19300276812780    1.57112152546394
C         8.49838416951826   14.71306919692223   -0.53597488151771
C         7.71446128990714   13.56762834878290   -0.50735150829912
C         8.16172405744676   15.73234778002776   -1.41365728740931
H         8.73859772451284   16.64499647307285   -1.41536761525502
C         7.09243569623882   15.59079816900215   -2.27758033271743
H         6.85441591333190   16.39078330333219   -2.96326659357848
C         6.31644524524964   14.43746765672906   -2.27185305767052
C         6.63816087350400   13.43369161111743   -1.36799264634555
H         6.05645016246438   12.52386776640508   -1.33649006875522
C         5.17836843578031   14.26754825836620   -3.22834158434429
H         4.40144210342058   13.63870982992617   -2.80081764018095
H         5.53378183024824   13.78943190512128   -4.14146447675711
H         4.74978007579410   15.23010025547612   -3.49626842932582
C         7.08901585102541   12.72510353600374    2.05305788955669
H         6.13898049155609   13.10936328793640    1.68263140264578
H         6.94325784946810   11.82933818348962    2.64724522047838
C         7.88419972639146   13.83375766037590    2.71219166925309
C         9.48000135270092   14.61800020089916    4.30524638252845
H        10.08602667842505   14.93554533809353    3.44855018702857
H        10.13934062066418   14.17812516235524    5.05226190989610
C         8.77619969824892   15.84901902915078    4.89407738760665
H         8.11959230303232   16.26277449627490    4.12432838223493
C         7.93980982096666   15.48591693495329    6.11819458620624
H         8.56526162379935   15.04774869026535    6.89427570388720
H         7.15329432162854   14.78060843223370    5.85964553471035
H         7.47021227460734   16.37774425891565    6.52677641647706
C         9.83025648935251   16.89153046947259    5.25605964358487
H        10.50702831448018   16.50249854526049    6.01419940921499
H         9.35713706349221   17.78919980261344    5.64624154845087
H        10.41443303591485   17.16291112834891    4.38069799038596
C         8.36614375184871   12.41533508611194    4.68402625400204
H         7.30515853824996   12.14526831912769    4.68962259967418
H         8.63119228165700   12.70173515365529    5.70412842823403
C         9.21593581323012   11.19926516839154    4.28023605069064
H         9.02785957023147   10.95226987869849    3.22716723321663
C        11.19852281039287   15.15325646810504   -0.69718969558696
H        11.00725701396912   16.08324878101307   -1.23211826682728
H        12.11511800340046   15.22761975756626   -0.11097549399930
C        11.25913292178464   13.95960495150315   -1.64407609639358
C        12.08337564404949   12.92635167859811   -3.63378324450163
H        11.66271343218276   12.05837890670982   -3.12088320559365
H        13.10581790308884   12.69449340968852   -3.93691428375620
C        11.23553284496668   13.24209311595603   -4.87551002556336
H        11.66175498695230   14.11543547029423   -5.38446441324324
C        11.28969565418869   12.05086597963524   -5.82839532267118
H        10.86385919598669   11.17073347679425   -5.35293653371897
H        12.31619776517955   11.82714165528349   -6.11012127763138
H        10.72433505371575   12.26112595044749   -6.73310545500016
C         9.79160739438718   13.55775634045468   -4.49282345104205
H         9.18828960532554   13.70744353342560   -5.38573189051272
H         9.73377441579242   14.46144213197238   -3.88927867953657
H         9.36694152260143   12.74030302638111   -3.91570937949887
C        13.09984527422961   15.05508187039279   -2.90635391099005
H        12.82925794961144   15.95823029213763   -2.35933458001187
H        13.08891167859529   15.29409954155321   -3.97521129495535
C        14.52840234347205   14.64164801668718   -2.50607696710541
H        14.77296255886182   13.70075113215270   -3.00887806336325
C        14.65760303610335   14.43060172584237   -1.00213008850427
H        14.49772645714430   15.36428778441953   -0.46650285826754
H        15.65526413101692   14.07363464506543   -0.75990243802590
H        13.94624711063904   13.69440531537093   -0.63722830788807
C        15.50778792676259   15.71154632655585   -2.98413293002971
H        15.28541166261824   16.66752253168732   -2.51447522134755
H        15.45468920069800   15.83708614147952   -4.06372380135576
H        16.52468632244413   15.43234530968713   -2.72183642731249
N         8.56372931898264   13.58117258322143    3.84151740295365
N        12.11241168916921   14.02322253996410   -2.68014226968312
O         7.92971229074549   14.92786485417287    2.14863257765846
O        10.51085855934733   13.00201608866885   -1.48638688885808
S         9.88688883138527   14.93355008759014    0.55897074229322
S         8.06131447340930   12.18915884652395    0.57963171855819
C        10.70448134849711   11.50179153649953    4.41783638356001
H        10.95818787453727   11.78234511992324    5.43909632832630
H        10.99404820122338   12.30606539420207    3.73420827578703
H        11.28004529825087   10.62214805228936    4.14342630316222
C         8.82438009398637   10.00260922120516    5.14204591324178
H         9.39463429996193    9.13005863221022    4.83780968922106
H         7.76554674162022    9.77173875151656    5.03896656685428
H         9.03234530614516   10.20226941075601    6.19175082413487

