87
CSD_code = QULMEP | q = 0 | S = 0 | Stoichiometry = C41H39Cl2OP3Pd | MND = 4
Pd        4.82268359042102   17.85078019354424    1.96338732404348
Cl        5.13369163959004   17.39013655419484    4.17046766638548
Cl        4.45866167010376   20.09073801541622    2.26912663624046
P         4.38021184831620   18.44872427352735   -0.13020618932701
P         5.39551898862267   15.74141876557132    1.58716177711730
P         4.40234692432890   13.12760086252051   -2.31983349428727
O         5.14146996976080   12.45853091576235   -1.23990278474465
C         4.68181137809402   17.24625124317009   -1.52095117753514
H         3.96597857999112   17.48838284081704   -2.31318688713330
H         5.68561662546559   17.44163855959864   -1.91201719793184
C         5.67999355234194   15.33252900459615   -0.19190631876020
H         6.61948605177176   15.81859603364031   -0.48135223353672
H         5.82883835726139   14.25373976576867   -0.26159284041836
C         4.69169934768154   14.95364572279420   -2.45624125236371
H         5.70719273533119   15.05539039436422   -2.85599164215761
H         3.99516209955969   15.34657178723593   -3.19906616787184
C         4.55473724140303   15.75635125686399   -1.15148813750832
C         3.18705723562442   15.48975960542212   -0.53353757565344
H         3.10408112603959   14.44171424269684   -0.25083139290818
H         2.38972368152673   15.72981370265364   -1.23638811603797
H         3.05339939806225   16.10307233843553    0.36363357837964
C         2.60439876514466   18.79631643055519   -0.27035934740671
C         1.81302481619796   18.57301891186778    0.85423295075006
H         2.28094928415891   18.22946796860790    1.78563759198996
C         0.45204169649897   18.81198841570998    0.80244847256011
H        -0.15896878054236   18.64633868305134    1.67704997819716
C        -0.12549397158467   19.27268274673665   -0.37007065190780
H        -1.18695045819229   19.46791182179070   -0.40879101502159
C         0.65641408391980   19.48823312649316   -1.49361029643154
H         0.20413496117537   19.84974440035196   -2.40594260766976
C         2.01785066715939   19.24751002017241   -1.44890588381682
H         2.62786861079837   19.42065856985698   -2.32614165433436
C         5.27375935744361   19.90072608508820   -0.74421814427021
C         6.66120085776138   19.77896184509115   -0.79466001727234
H         7.12229089085516   18.83527658602772   -0.51719298116387
C         7.44221474532870   20.85606099799367   -1.16424223930721
H         8.51776099317591   20.75954635885828   -1.19741634784174
C         6.84218311214378   22.06651326989531   -1.47473594034712
H         7.45101578884106   22.91250247794947   -1.75738118645007
C         5.46601545892898   22.19861427906488   -1.39734706558263
H         5.00263095158967   23.15005379752992   -1.61334321429602
C         4.67838609748090   21.12301691928144   -1.02564481085594
H         3.60923759378625   21.23940315739936   -0.92773102076261
C         4.36338341614196   14.39905735240433    2.23084556811742
C         4.58809429344478   13.05453537318929    1.95034242796156
H         5.41047977935752   12.74991336964198    1.32039537676200
C         3.72850795019634   12.09791967654269    2.46034240695357
H         3.90500150962506   11.05357101026675    2.24598996221170
C         2.64608270506376   12.47240005939251    3.24027744023912
H         1.98145326795080   11.71827765422582    3.63612301418200
C         2.41403184601342   13.81136092031466    3.51054861582719
H         1.56855615641721   14.10336104043290    4.11545579887351
C         3.26831528658872   14.77335813604167    3.00479406747510
H         3.10653373466861   15.82901071391616    3.21476427722980
C         7.07715031515594   15.56292815204006    2.24910213938047
C         7.61268079928334   14.39534469642689    2.77456666706849
H         7.01625755425983   13.49649895183778    2.81983805020615
C         8.90630830395878   14.39713480888172    3.26951784503953
H         9.31992037756007   13.49088070295940    3.68726561323871
C         9.66401151148908   15.55508849498104    3.24308116565269
H        10.66921254843392   15.55124266677162    3.63802225510444
C         9.12751458198974   16.72743823386821    2.73132026340180
H         9.71150091122800   17.63610756479425    2.73333300993503
C         7.83677125386302   16.73446149706344    2.24062938735823
H         7.38797301926602   17.67092379495398    1.87743730408083
C         4.87353084696538   12.49934474188983   -3.96672168173286
C         4.67468260944178   13.17510514282622   -5.16373006654427
H         4.24458517331109   14.16575526599620   -5.17251234979877
C         5.04264856007009   12.58216021562346   -6.35816078421878
H         4.89075240314622   13.11075013841337   -7.28803245387563
C         5.60494115497908   11.31588104369888   -6.36607838821814
H         5.88875045901719   10.85906087606004   -7.30249478204191
C         5.80634439809241   10.63981825792053   -5.17419399974564
H         6.24835679364643    9.65456727473381   -5.17753377272668
C         5.43995357467512   11.23140543284795   -3.97925145192082
H         5.59662476926593   10.72816294474729   -3.03609590032215
C         2.60880634970343   12.82643370934580   -2.22621599212220
C         2.15296396073305   12.08495953027725   -1.14508270478966
H         2.86792060809601   11.74763964193694   -0.40817192150689
C         0.80672701828129   11.79546885808661   -1.02087282047171
H         0.45304223405969   11.22279434123997   -0.17658826002033
C        -0.08447304109705   12.24128560784740   -1.98310186613952
H        -1.13653014620855   12.01616817223628   -1.89066240892719
C         0.37121649191913   12.97224474144605   -3.06912115659627
H        -0.32565869900361   13.31255375022474   -3.82106783859839
C         1.71691313657905   13.26472966219380   -3.19470508668585
H         2.07233265916056   13.82626283169995   -4.04621511216444

