46
CSD_code = QULQUJ | q = 0 | S = 0 | Stoichiometry = C19H20FeO6 | MND = 7
Fe        7.83042254204360    8.67128728049498    2.61352892198333
O         7.01946435273618   10.61387457181664    0.61141666835365
O        10.54688757218839    8.96896636030734    1.60355997098920
O         7.91682647126501   10.43966219043303    4.94505643114967
O         8.53496594552375    5.74831188431328    1.70296932506818
O         8.65524763653920    4.07482056654257    3.20609366691763
O        11.65933635151189    5.76819160880560    2.35152266182943
C         7.32420275888669    9.82924121146057    1.38951717532154
C         9.48637918183672    8.81880698269676    2.00256302671077
C         7.87498997477154    9.74229870870789    4.04120723344649
C         8.15403522462741    6.93910877783472    3.84171842408221
C         7.12791434626064    6.84084130319025    4.95700001222409
C         5.78355389781558    7.40739490530550    4.48237621436990
C         5.90061537039901    7.92436989391433    3.05553631459132
C         6.51917491534551    7.05182049155662    2.09621080307975
C         7.73153569558736    6.51177484242448    2.54547852901647
C         9.04273898100285    4.59853601076559    2.19712492819356
C        10.16423711721631    4.11636536370997    1.33055599186516
C        11.50109440596711    4.76296065596581    1.72081720389297
C        12.56081322887126    3.88181560095445    1.09292725827764
C        11.72891086954948    2.81893486509171    0.37329225499762
C        10.53736439404517    2.61780396294188    1.33730112286726
C         9.43509700875452    1.70666964917025    0.80471989866590
C        10.93698712626504    2.10520908423960    2.72104277024695
C        10.06388680970670    4.46708795591162   -0.17340105478009
C        11.08784116223604    3.52273765559707   -0.82999794453449
H         9.14743482548807    6.60945214090589    4.14042648593118
H         7.49457213525571    7.38058162873576    5.83048696520481
H         7.03155020038313    5.78752533234643    5.23702881304743
H         5.45323777919744    8.21839934866894    5.13236242788645
H         5.00986149396397    6.63340669729429    4.50721983607768
H         4.98856253130242    8.41411337064091    2.71922176814508
H         6.12033682349899    6.83163963015208    1.11389036441230
H        13.18947485307884    4.46964959061873    0.42271106622205
H        13.21073361676063    3.46826308141820    1.86380093447005
H        12.28220008104911    1.91710190382202    0.11798633448948
H         9.80634068506787    0.68594126876716    0.74066620418588
H         9.07685343723830    2.00119805077244   -0.17543222527435
H         8.59224971968848    1.72041605664316    1.49210495833137
H        11.58301026107988    2.79852103554802    3.25133712812452
H        11.44795500773397    1.14865293922651    2.62912479171657
H        10.04643491347699    1.96622459944681    3.32796343130417
H        10.29516395394983    5.51863683632135   -0.34257207197517
H         9.05000589524948    4.29268951612974   -0.53102619370124
H        10.60858902883042    2.80870289252199   -1.49793893982740
H        11.83050941676651    4.06759169585939   -1.41199988760196

