69
CSD_code = QULRUK | q = 0 | S = 0 | Stoichiometry = C36H30HfN2 | MND = 14
Hf        0.17321281441154    4.29142188695480    4.53444259905487
N         0.50933680661497    2.35409952995234    4.09496331569299
N        -0.57251625596515    4.28001298073626    2.67363380588743
C        -0.22772861483850    1.96678535394436    2.97318437815811
C        -0.82943938984234    2.96194894991779    2.25064622307004
C        -0.51410613321194    0.51957387847687    2.80281756609157
C        -1.31900156310868   -0.11022010110613    3.74660921074350
H        -1.73218407367775    0.47283789878792    4.55670572886717
C        -1.59688796665926   -1.46086868538006    3.64833785614182
H        -2.22931671997373   -1.93440447066852    4.38514956547652
C        -1.06712409416126   -2.20561872662177    2.60867023590516
H        -1.28378316152863   -3.26078429985960    2.53080254104195
C        -0.25088786015108   -1.59320113842241    1.67394313605074
H         0.17628978092684   -2.17158954274626    0.86745645242994
C         0.02760638202664   -0.24211220332352    1.77258254812092
H         0.68931891352961    0.21990661126557    1.05266669606886
C        -1.90529880153855    2.75000611561871    1.26518928933256
C        -3.05719507036330    3.53367680622290    1.37434269418380
H        -3.12323359479387    4.26461704423619    2.16681530505250
C        -4.10982479055834    3.37965049091179    0.49538812101024
H        -4.99160100912886    3.99477974714974    0.60308644493745
C        -4.03985324495860    2.43936835615399   -0.51927682671814
H        -4.86285171140127    2.31733808703145   -1.20778322114898
C        -2.90106697017396    1.66386307895046   -0.64632823722821
H        -2.82959780519388    0.93539953682465   -1.44125290638075
C        -1.84299777573818    1.81995531012550    0.23014941160092
H        -0.95622889618051    1.22523753639213    0.09351341513861
C         1.44568075509404    1.51240148175606    4.66906618088481
C         1.63734064165224    1.55775357971472    6.05960062119350
H         1.02101686975862    2.22098154483536    6.65657921579368
C         2.58061182637019    0.75839018197885    6.67318441317816
H         2.70479867628812    0.80749372080992    7.74592037041049
C         3.36142354424324   -0.10981498739170    5.92707439562833
H         4.09452096024520   -0.73716177503416    6.41032254705453
C         3.19371690013218   -0.15592634216252    4.55274423631438
H         3.80789159434773   -0.81604298104748    3.95742384838119
C         2.25817291913188    0.64289788426822    3.92787918096681
H         2.16429237786507    0.61969072788473    2.85449868476825
C        -0.63104692412721    5.32692226412026    1.77940153992454
C        -0.44807425669098    5.17896731083395    0.39548149160851
H        -0.25725300103170    4.19757355310937   -0.01038455454818
C        -0.49194900580608    6.27382900329446   -0.44226289765946
H        -0.34571048853910    6.13274277974689   -1.50348015992454
C        -0.71035811624199    7.54664199423307    0.06053547315898
H        -0.74215660901565    8.39841443883511   -0.60121704041400
C        -0.88710107241070    7.71182150198780    1.42524911245101
H        -1.06142389961667    8.69899560530406    1.82977580523532
C        -0.85246595059481    6.62421522135055    2.27348125263840
H        -1.01571076834343    6.75944394474006    3.33897473644102
C        -2.26214906556069    4.98425262531574    5.04253922616768
H        -2.90551508452126    5.60547365543100    4.43629581485688
C        -1.34404533583290    5.44946000945408    6.01145070918346
H        -1.21218805330855    6.48173643203592    6.31091179030218
C        -0.84923362720050    4.31529875894206    6.71355913954121
H        -0.28527764959412    4.34561306699787    7.63771798451528
C        -1.47520055544209    3.16983368086220    6.16657238079818
H        -1.40953164016673    2.16652560722039    6.56248597898996
C        -2.33891576291632    3.58535372409147    5.14209271425770
H        -3.00676862418767    2.95002352781888    4.58113036174196
C         1.79382652019013    5.75693840418007    5.79245553260414
H         1.66722388533775    6.18012417666592    6.77904195031435
C         2.47235353521291    4.55812318615240    5.49447939029331
H         2.96170038534928    3.91417508805212    6.21034187013141
C         2.61428955409059    4.47532051009549    4.09095738657453
H         3.19060721259797    3.73181573447459    3.55873610240006
C         2.01247793827438    5.61746480839121    3.52318586570552
H         2.05961414429380    5.90626154310999    2.48274768807806
C         1.49483985630935    6.40621094318892    4.57659138703115
H         1.12313620002433    7.41628383284256    4.47780292443915

