89
CSD_code = QULZAZ | q = 1 | S = 0 | Stoichiometry = C42H40N2O2P2Rh(1+) | MND = 6
C        -1.05290441979312    2.97569964965347    7.83654765764460
C         0.11879569229638    2.71275392539966    6.96360019822221
C         1.30577010897572    3.43933395563895    7.08642893183046
C         2.39100489654411    3.12767813674524    6.27405182525181
H         3.31788303089901    3.67376594560273    6.38338788118777
C         2.28960511196994    2.11126936865013    5.34033399120344
H         3.13605429480868    1.87351311004149    4.71409272728960
C         1.10588532192547    1.39856923448899    5.20661306944830
H         1.03139740910876    0.60947582212420    4.47442545940559
C         0.02480819849425    1.69530962949546    6.01285668804713
H        -0.90251047742614    1.14815687629366    5.92625211485081
C         1.72796078629510    6.26357192957519    7.39386477657835
C         1.79473646483581    7.46306086696804    8.10384708422906
H         1.62984646125686    7.46126464567629    9.17530744368146
C         2.06752738833424    8.65413192556682    7.45677437564053
H         2.12808082777674    9.57300068812152    8.02070257192919
C         2.25442573595091    8.66590775566143    6.08410589069336
H         2.46616962201285    9.59329758530092    5.57551335048356
C         2.15796674573728    7.48543163149710    5.36688512203672
H         2.28921897548698    7.49218814649669    4.29553425828302
C         1.89285900560598    6.28997712951258    6.01328031530668
H         1.81127509001116    5.38058956167809    5.43611038800500
C         2.98385626881797    4.40102379383732    9.09219848483294
C         3.81811772374717    5.40230161358960    9.58038047675319
H         3.55330672790975    6.44238847988800    9.46759272269594
C         5.01414125566861    5.07683167079919   10.19591954812869
H         5.65541004808500    5.86436893401637   10.56224700826273
C         5.39027302216272    3.75207674086331   10.33837287087555
H         6.32380051811779    3.50261596853448   10.81840312490908
C         4.56498971724856    2.75008092601579    9.85485606007943
H         4.85155739721732    1.71395819026682    9.95187570384857
C         3.36891449952410    3.06962273248730    9.24126044014887
H         2.73265044258673    2.28154585211785    8.86494620209015
C        -2.71702630200517    3.85201043666135    9.93334588923979
C        -2.95293187261078    2.56452664449831   10.62167906948260
C        -1.85027712466309    1.83876037745267   11.07175782442702
C        -2.02296215560824    0.61264214794640   11.69771215763986
H        -1.16507455204136    0.04606920761928   12.03279063197369
C        -3.30642812575157    0.12021091883835   11.87419857461518
H        -3.44961231188050   -0.83636328681787   12.35365625370604
C        -4.40711593341821    0.84374494934077   11.43513670520147
H        -5.40003913400975    0.44465303416077   11.57457312937565
C        -4.23926622732988    2.06731311519395   10.81236606736697
H        -5.08495983385031    2.63619153369589   10.45649415984165
C         0.36400190147263    3.17902953051443   12.35611821834247
C        -0.25302184120317    2.83978506774560   13.55478513346134
H        -1.15176304533103    2.24064538858867   13.55265789951532
C         0.28633593825822    3.27664565812792   14.75311582619867
H        -0.19288960437148    3.01001823117098   15.68268832556247
C         1.43532123733646    4.05052587582009   14.76352349523292
H         1.85238445150465    4.38409238048833   15.70110592098032
C         2.04741547033428    4.40008265515885   13.56917621224138
H         2.94168888298233    5.00524496848748   13.57331225766317
C         1.51074508357274    3.97233947453964   12.36941300786749
H         1.97810882200439    4.24431360075376   11.43176881242800
C         0.77924701216665    1.20797040212273   10.34648972418490
C         1.92734071121964    0.88503069629638   11.06149068011078
H         2.25417258600337    1.51010232588482   11.87947682424186
C         2.65334796953456   -0.24385351022965   10.72164546177594
H         3.53775254077254   -0.49864912732567   11.28611563974924
C         2.24833498387662   -1.04602844190030    9.66790220194382
H         2.82197409697614   -1.92113363561121    9.40384943946814
C         1.09839308769202   -0.73169546548044    8.95947115988062
H         0.77259006349497   -1.36299682981450    8.14687293295264
C         0.36199358057275    0.38623653122979    9.30051069744872
H        -0.55087085839476    0.62067675634107    8.77116929202600
C        -1.36032956815830    6.20513823369203   12.09449301959050
H        -1.41489532715063    7.19860821052647   12.55518651303329
H        -0.63083253317887    5.60824327406737   12.63713934866569
H        -2.33722389949011    5.73032926988340   12.18381897219902
C        -1.87985413678645    7.21344753081534    9.97313561205490
H        -2.90818043224307    6.90088406124517   10.17597197106469
H        -1.75645727681970    8.24213394183101   10.34025329566527
C        -1.63710375579341    7.17978503229189    8.46738679201792
H        -2.31686746083005    7.89548510317444    7.98458775150623
H        -0.61095464356763    7.48227655034660    8.23458997434115
C        -1.70694431811888    5.79656216646407    6.48749066367451
H        -2.34248384617281    6.55068393186163    6.01078532014708
H        -1.99097200437330    4.81715963900459    6.10665424653952
H        -0.67127575411569    5.99810203132309    6.21093353186220
N        -0.98729274118561    6.28722305190448   10.68258779169780
N        -1.85866479871325    5.82782699317097    7.94197139443537
O        -2.13739025733649    2.49403800866655    7.63509784827439
O        -3.60635629441978    4.64009614205074    9.71506120558383
P         1.34230983962166    4.75016073937653    8.35092077440118
P        -0.26566746632233    2.64920503132750   10.73255314338487
Rh       -0.85066761737074    4.31648489577277    9.29480504736063
H        -0.04082882512911    6.67107664329194   10.63973749529508
H        -2.83875027189306    5.59874548392338    8.14729989719852

