54
CSD_code = QULZON | q = 0 | S = 0 | Stoichiometry = C24H26Cl2IrN | MND = 8
Ir        4.77615838239055    7.74950787672731   14.65584001022135
Cl        2.88104583989029    8.75558995900356   15.59722792126095
Cl        5.06269435699760    9.60032963617158   13.25127755685240
N         3.27322668861211    7.24998286919008   13.07266170865793
C         3.44454811368300    6.04582740822301   12.35832249790483
C         4.25024565117899    6.00103936693265   11.22827853610706
C         4.43032354320598    4.81087444450957   10.54567175096668
C         3.80071638402453    3.65381446830105   10.98195574633433
C         3.00179173704707    3.68187673900513   12.10868289687227
C         2.81904924003259    4.87147894535017   12.81382663518935
C         2.04755033071973    4.91560998922124   13.99386891933335
C         1.44197937272488    5.00760885861303   15.03602938638973
C         0.74613408497192    5.07843710583958   16.26036506065029
C         0.07651597342567    3.95772101932808   16.75631430868702
C        -0.58992105135282    4.03411554363185   17.96345717493708
C        -0.59486384659712    5.21883919149939   18.68357726687243
C         0.06973723686638    6.33200280719857   18.19258455822208
C         0.73999110107627    6.27235031432141   16.98602788867084
C         5.65862865453422    5.71022309685923   15.25382930412320
C         5.32732976025605    6.44959936398681   16.41203052894149
C         6.08371030708698    7.68385086829398   16.38313960242125
C         6.92146449566204    7.65605684755831   15.21578460800140
C         6.60546063539290    6.47520447333052   14.48169324959072
C         5.24445352434189    4.31068513968899   14.95226232448957
C         4.45886414766599    6.01370879708726   17.54432554835789
C         6.16688039540717    8.65107955134956   17.51869094575388
C         7.99782938090353    8.62725694598647   14.86292083920337
C         7.31736161550545    6.00132503120498   13.25795898912287
H         2.38483157503292    7.26418055652956   13.58319754231921
H         3.34223452914884    8.07364268155088   12.46598662746090
H         4.73589329279308    6.90714293504624   10.89728055363563
H         5.05851315813251    4.78681164328890    9.66825858016809
H         3.93694794359119    2.72843078678584   10.44319624064619
H         2.51417862775181    2.78448821258376   12.45939612252843
H         0.08416273983433    3.03747233280432   16.18939646793496
H        -1.10897313208679    3.16667691316528   18.34534055992547
H        -1.11822572008399    5.27295539699246   19.62700672569728
H         0.06501381731675    7.25535254908982   18.75264872732443
H         1.26217806783269    7.13570544482875   16.59903512650384
H         5.92533483082885    3.62123287317518   15.45499078199071
H         4.23526619200505    4.11059069332141   15.30392706881205
H         5.28756306715563    4.10797323249292   13.88499364638337
H         5.07309234310900    5.77324328535668   18.41317181387025
H         3.77081986615637    6.80915121192901   17.82398150107649
H         3.87462750102139    5.13794852864674   17.27504155565213
H         6.88184184660416    8.28998710345208   18.26026714425106
H         6.48783060201333    9.63156752097786   17.17598515814442
H         5.19726262303507    8.75714900149912   17.99926857210312
H         8.97104029304847    8.14791395690263   14.97642934482389
H         7.96155625147722    9.50203457063118   15.50567624966872
H         7.89769319331680    8.95883123680279   13.83103195338465
H         8.17334001630340    5.38427990041841   13.53728407478045
H         7.67921633726191    6.84643135127831   12.67794353832885
H         6.65965408186883    5.40580942187171   12.62755855847077

