116
CSD_code = QUMCOQ | q = 0 | S = 0 | Stoichiometry = C62H49ClIrP3 | MND = 6
Ir        1.86461922647079    5.38526269311893    4.17699791623989
H         0.57938947022395    4.82525634766008    3.55956944797570
H         1.18761548840216    5.15511884962406    5.53287984876132
Cl        3.88671588676016    6.12327376417376    5.30361611411576
P         3.00800017038032    3.37884229657115    4.34318932453507
P         2.68104616742456    5.57301291045311    1.96146688749323
P         1.12289993725129    7.57370954058867    4.38193082559133
C         4.57168648978143    3.41705958310006    3.40680848023646
C         4.58588009731786    3.17213074818387    2.04542938169392
C         5.81789344538975    3.18746729294191    1.33346475066758
C         5.89707104547267    2.91207857823479   -0.04906283708815
H         4.99303279505373    2.68427521894381   -0.59352286435144
C         7.09874087465784    2.92185212406771   -0.70000521773853
H         7.14243139807274    2.69896828008187   -1.75617961810047
C         8.28039331152873    3.22786280319200   -0.01041807911029
H         9.22117508300201    3.23354409599979   -0.54129427169302
C         8.23483086216216    3.52505829098853    1.32213437711370
H         9.13679243872224    3.77453642989579    1.86290728999766
C         7.01288608543480    3.51496829498380    2.02431030814008
C         6.94318310755634    3.85110094533866    3.39226610635033
H         7.84790424108360    4.15084433416338    3.90165117950453
C         5.75829984332001    3.80408660419875    4.06441812534146
H         5.70825769447389    4.09405449885344    5.10317390889134
C         3.32161857620725    2.91484731494924    1.32387415346905
C         2.40289218984951    3.93918610216248    1.15711335914842
C         1.20153986524929    3.68480493211365    0.46762783753751
H         0.48947372851183    4.48568917412871    0.33779613174307
C         0.92877081065832    2.45005782178920   -0.04370448888562
H         0.00080950874491    2.26973499484802   -0.56776734124072
C         1.84895758423589    1.39195338460938    0.09067115400187
C         1.59039375406298    0.11130970276976   -0.43874087932284
H         0.65257112761564   -0.05468391931960   -0.94966188207963
C         2.50399796233690   -0.89583576074532   -0.31256709793276
H         2.30226683972540   -1.87393871490893   -0.72403795951242
C         3.71398159185976   -0.66377449775252    0.35747907953660
H         4.43005406981593   -1.46691806133696    0.45273385493980
C         3.98654122566353    0.56235321679953    0.89477752547402
H         4.91743545925424    0.72647268034813    1.41625427986190
C         3.06978776290899    1.62955432329736    0.77141120750368
C         3.52113504008765    2.80463869413108    6.00506481885459
C         2.68958099276528    3.09436808447217    7.08080145841091
H         1.81026852837077    3.70022045388411    6.91647986127220
C         2.98802661133821    2.63409490596277    8.35021924703571
H         2.33635359631584    2.87841974910105    9.17640371220780
C         4.12030366855497    1.86685455481101    8.56175322444729
H         4.36063002112069    1.51096405401225    9.55294291521400
C         4.94657356834319    1.55952708363804    7.49412361783341
H         5.83209766551493    0.95973445358130    7.64991324300258
C         4.65039004175427    2.01873861188830    6.22377227468312
H         5.31970766095219    1.77230273242504    5.41166426950574
C         2.25459595986527    1.79648819064226    3.79170102590305
C         0.90830828617184    1.75327825511939    3.45452574461483
H         0.33021292430909    2.66510501002651    3.49148031090279
C         0.31944501358968    0.56245036334437    3.07039152546205
H        -0.72571194530592    0.54297547759736    2.79755801296043
C         1.06577332846008   -0.60243793287838    3.03869970004018
H         0.60811716360356   -1.53390357286712    2.73971915904529
C         2.40307593812344   -0.57115521297525    3.39657163394002
H         2.98832239036549   -1.47921532183001    3.38117379199114
C         2.99601625219695    0.62007304835991    3.76809674283742
H         4.04296318137229    0.63342043951676    4.03283920928984
C         4.36135218262902    5.92914683781733    1.33594570237115
C         4.65100403029497    5.72471099722179   -0.01298518419043
H         3.89337433467623    5.31068654002631   -0.66657232452340
C         5.89979208785483    6.03893158142643   -0.51086152065168
H         6.11554408695272    5.88280585699167   -1.55817191134218
C         6.87644927584741    6.54801197657029    0.33095099520943
H         7.85251855511932    6.79192974869051   -0.06252101475750
C         6.60160163176507    6.72877230150007    1.67434510402602
H         7.36516643973842    7.10785391856806    2.33802942100357
C         5.34927260451351    6.42180308002635    2.17788379780324
H         5.15090181093146    6.53433532074327    3.23366131711113
C         1.67981091060193    6.69225213472640    0.90216174159350
C         2.21008289603241    7.55327109702956   -0.05177510026493
H         3.27605677460588    7.60988144486579   -0.21110993609945
C         1.37890454499913    8.36710446158959   -0.80249559316654
H         1.81168381203171    9.02502305989575   -1.54230091593385
C         0.00949820288041    8.34681701302261   -0.60938668108526
H        -0.63358379737223    8.98071759037236   -1.20199070199374
C        -0.52707723202647    7.52338219702110    0.36621198953966
H        -1.59216972369054    7.51662921751237    0.54915444224141
C         0.30162565831496    6.71319157851532    1.11777104564204
H        -0.12144997529613    6.09379022546205    1.89552291932691
C        -0.65173425347780    8.00897686637116    4.45315297090431
C        -1.02328526751258    9.30558044680129    4.80314834229849
H        -0.25949524485152   10.03932853513661    5.02501865002462
C        -2.35901902190515    9.65143526059163    4.87307202155651
H        -2.64023510444981   10.65951159276079    5.14170403926812
C        -3.33716658984612    8.70613256774947    4.60414517816303
H        -4.38077281095778    8.97947416563741    4.65928473571421
C        -2.97384480901153    7.41091375148319    4.27863902331206
H        -3.73445643359024    6.66848632996661    4.08507809969086
C        -1.63563376886293    7.06242131329155    4.20628911702521
H        -1.34252844416040    6.04777028173798    3.97844623786293
C         1.60035000725713    8.30831232519906    5.98768443170722
C         1.00081562493655    7.74714508146295    7.11266671177321
H         0.30799213596125    6.92551562131057    6.98360967108977
C         1.29754267387240    8.22342559752590    8.37383774767390
H         0.83280191235006    7.77832810992866    9.24178991717944
C         2.19630267706440    9.26786940814533    8.52531219497118
H         2.43554517108754    9.63801070224518    9.51164983049208
C         2.78966245572193    9.83167662812767    7.41016887212625
H         3.49229317869792   10.64492164170471    7.52379092560822
C         2.49458751518106    9.35791007638494    6.14267551322090
H         2.96871365089101    9.80731509021441    5.28217772865976
C         1.79006603220360    8.78377264437010    3.19290361369578
C         1.01895522596964    9.63840257680694    2.41574461894042
H        -0.05832793749985    9.62544236052483    2.49207087026887
C         1.63464504863610   10.50680653834631    1.53132493989402
H         1.03014495880772   11.17398277789652    0.93382790530962
C         3.01344106458984   10.52186583320965    1.40421151049567
H         3.48449230693488   11.20177818082539    0.70921729681649
C         3.78598331500997    9.65944346379545    2.16483297598315
H         4.86209405521206    9.65817227227545    2.06537431206899
C         3.17608190409780    8.79598324611594    3.05424900942859
H         3.76770655572229    8.13052119155247    3.66724757651564

