121
CSD_code = QUMLEP | q = 1 | S = 0 | Stoichiometry = C41H75N2P2Pt(1+) | MND = 4
Pt        1.23619520161036    4.32715757540516    9.80089182334704
C         2.11187198727913    2.52774164693049   10.33691284929574
N         3.10699097969944    2.38550612885915   11.23431001189351
C         3.75661574248803    3.47080204441695   11.91511705834764
C         3.45566263956376    1.06733862366382   11.36211913470487
C         2.65487710147359    0.36998517214946   10.52443213663239
N         1.84255973077224    1.28157635397286    9.90371809420348
C         0.83128827058076    0.94277472854860    8.94275013640778
P         2.22839156275446    4.52219955377049    7.70223764739188
C         3.38062845733474    3.18849136324805    7.06750039840874
C         4.58374254983498    2.97409712152694    7.98558407468663
C         5.34669939091964    1.72027597214268    7.56416491317598
C         5.83260180593851    1.86151847665973    6.12513150340985
C         4.66079500064179    2.14567902052937    5.19083503611723
C         3.88944983822388    3.38830346196533    5.63779739059787
C         3.33492336972602    6.02523372710685    7.70610850709558
C         3.87356089817013    6.17236492544679    9.13388138611650
C         4.85101380412368    7.33838424299330    9.24719564177233
C         4.19556698901682    8.63613179543902    8.78879436074443
C         3.67755346868723    8.48390425681244    7.36304114668167
C         2.67492318095890    7.33400434735653    7.27847824550192
C         1.00912815389312    4.69575689828592    6.29485633860063
C        -0.16068377624481    5.61655278914318    6.64909857452176
C        -1.08532304022011    5.79740276516351    5.44776946730373
C        -1.64271610571690    4.45413264422120    4.99283907134698
C        -0.49906295352595    3.49756872277326    4.67744841237312
C         0.42291896992805    3.33987588901927    5.88548602999956
P        -0.09205198953110    4.56911335561980   11.69572344865949
C         0.09872956216793    3.30088624340178   13.06305114064460
C        -0.40389844613539    1.93318660564013   12.60183632598805
C         0.02998324688398    0.84976554547955   13.58464964404230
C        -0.53437902826873    1.15567357943265   14.96838244215403
C        -0.08351448583500    2.53649307200479   15.43329846752697
C        -0.48962990628421    3.62430114293272   14.43628600834146
C         0.05652920276700    6.18949046312436   12.59890683308342
C         1.52370374287008    6.35308758983147   13.00394761345191
C         1.75345403105591    7.65021720954443   13.77284019241714
C         1.30816658790494    8.84463943732867   12.93769889552262
C        -0.15960515434899    8.69167142724515   12.55660418229722
C        -0.39050584617271    7.39783715952776   11.77720355864428
C        -1.82723512780022    4.56398630626945   11.03876198658054
C        -1.98433993976629    3.49748235289093    9.95323847716438
C        -3.29561044588744    3.71831293918083    9.20506382053225
C        -4.46764724906793    3.67127634273773   10.18316447697391
C        -4.29636738454327    4.70973530089614   11.28932639553263
C        -2.97895900643070    4.49695086531771   12.03655490629658
H         0.62249174385041    5.67600658087429    9.43474861683300
H         3.22968189570658    4.39532558127762   11.66577153101833
H         4.79841879494335    3.55421654596699   11.59840821459671
H         3.73700635551867    3.31554112204186   12.99480423508104
H         4.23110029965906    0.73925134944838   12.02251994308109
H         2.59743941503213   -0.67968061104793   10.32514249073121
H         0.03545883395392    0.35691389332424    9.40726273048259
H         1.25962352254249    0.35891464580035    8.12692557178870
H         0.41147199293422    1.86905134746304    8.54699463430584
H         2.77973589838621    2.26960535130037    7.09755739708570
H         4.25628030879894    2.87696148406312    9.02178035826000
H         5.25834642865978    3.82962980145586    7.91968642052064
H         4.69364936755164    0.84742689646086    7.64753184978452
H         6.19709764041316    1.56355439299628    8.23060017656342
H         6.34311450914839    0.94958681767403    5.81304555748604
H         6.55110997389710    2.68180625382514    6.06613994067425
H         3.98717237701595    1.28494042661907    5.17969388403697
H         5.02676923992750    2.29218586510175    4.17353383725001
H         4.55673568419705    4.25094701400807    5.59519754645812
H         3.07075339862992    3.56571576135367    4.94123609514747
H         4.16801928726403    5.82303437069589    7.02301005283578
H         4.37103962335035    5.25207443303302    9.44546577055497
H         3.01750324306760    6.34368426193568    9.80072152486845
H         5.72757354511356    7.13815847831868    8.62643514638525
H         5.19113404158269    7.43412790417212   10.28032570807790
H         4.91422186075717    9.45478743576726    8.84035445488634
H         3.36277442143721    8.87920977994155    9.45254749587566
H         4.51514363707974    8.29119008563772    6.68892862234913
H         3.19641621243357    9.40833573431399    7.04016178240609
H         1.83818163848217    7.55216646475032    7.94526733942118
H         2.30031296626571    7.25806019918277    6.25659892907459
H         1.55966554700827    5.12730485982080    5.44940014274502
H         0.19165370517289    6.59108721577320    6.97936563224096
H        -0.72349355593558    5.16939388588293    7.47246744437496
H        -0.53164084329087    6.25951645948655    4.62751651358783
H        -1.90206673694290    6.46921633484252    5.71621014603520
H        -2.27065401860032    4.58746445604206    4.11132774694481
H        -2.26355215497312    4.03071803659880    5.78578033089849
H         0.07495959542333    3.88242122458651    3.83165520981001
H        -0.89536862995228    2.52107767761475    4.39304608781492
H        -0.15905876038059    2.94160325190861    6.72111301854905
H         1.20198574676291    2.61901744829323    5.63906909490579
H         1.18914768439531    3.22563256848271   13.18442668439772
H        -0.02271537242487    1.71429016841626   11.60277283363367
H        -1.49348027965504    1.93942240973180   12.55434354954241
H         1.12162590507018    0.80917907156841   13.63272149363941
H        -0.32421832729127   -0.12505993677076   13.24365660704873
H        -0.20521666171262    0.39937343725163   15.68203486186597
H        -1.62523120415285    1.12337321259672   14.92877526614505
H         1.00350672746915    2.54126173175003   15.54928277272449
H        -0.52059527323649    2.75931698762273   16.40773539371614
H        -1.57704849889511    3.67596080339808   14.38127197000437
H        -0.11965238799414    4.58070129154058   14.80660138431140
H        -0.57421246255429    6.13466494548337   13.49292493736228
H         2.12633764269121    6.36899516296289   12.08866239156747
H         1.84613605821580    5.50581966258176   13.61420364183478
H         2.81046229318976    7.74233169314931   14.02909994195946
H         1.18498457807563    7.62645594987034   14.70521453664024
H         1.91667960426689    8.90314627928058   12.03242131495839
H         1.45365186101444    9.76807752120088   13.49911214296377
H        -0.47836397562525    9.53996747435224   11.94896228904083
H        -0.76940164194823    8.68394509121543   13.46290437582335
H        -1.45105998086701    7.32310160631839   11.53303825327263
H         0.17440222104658    7.43295613819268   10.84310753576057
H        -1.88097321311874    5.53280932745993   10.52305459651077
H        -1.99018819576760    2.49863674982951   10.39031633334328
H        -1.12695452651905    3.57265974591905    9.26425229380467
H        -3.42308958643268    2.95178212467893    8.43793503775553
H        -3.27516748656231    4.69111965330182    8.70866717926560
H        -4.52854495682362    2.67488720319669   10.62707708856474
H        -5.40115993888703    3.85392258679215    9.64963762214104
H        -5.13022692181468    4.64354969706609   11.98989077477334
H        -4.30758223268252    5.71045647801687   10.85173422140090
H        -2.86445206375333    5.26240702612747   12.80699656330174
H        -3.00620302008005    3.52123843311046   12.52397667841377

