70
CSD_code = QUMMAO | q = 0 | S = 0 | Stoichiometry = C21H44O2P2Pd | MND = 4
Pd        2.61701864951727   12.86311381229257    8.28895076221404
P         1.78768024128245   14.73971696084268    7.23115637175650
P         1.78000873366177   13.67206823557859   10.37061836927873
C         3.63712432069763   11.02565756735303    8.25472443447535
H         3.21512949843745   10.13806766410216    8.71552100849448
C         3.35822952689417   11.42780237902596    6.93941375975946
H         2.68606179463913   10.81339124387603    6.34199822255609
H         4.15338698288425   11.91889039810207    6.37962367695869
O         4.95068084855576   11.20401714776986   10.20199832488226
H         5.63930068375025   11.74790553227602   10.61234649234117
C         4.65408277728726   11.74347118449154    8.97926451493268
O         5.28690888961864   12.72100638237690    8.58346687126866
C         0.71494032341878   15.60947175243132    8.48598957005620
H         0.72949067037286   16.68698329680697    8.29418349209602
H        -0.29787653399583   15.25618921938890    8.28619452899894
C         1.05678491144366   15.34786465612506    9.96130726169772
H         0.16745388515116   15.51670589852867   10.57607668262258
H         1.81520461865261   16.06406759050334   10.28008372447622
C         3.19670860126261   15.95514281826228    6.88088141091768
C         3.76472447922898   16.30157934377556    8.25680942720242
H         3.11769681405174   16.98409805910836    8.80331855342780
H         4.74033681104950   16.77430443679115    8.15200604552877
H         3.89520042069921   15.37263171094860    8.81892033501001
C         4.28748699962622   15.16576261005647    6.15296307780372
H         3.98224942504317   14.85154303433227    5.15953628987377
H         4.54151314502914   14.28231262296353    6.74820006469647
H         5.18479241869456   15.77574005859799    6.05394929127632
C         2.83734822729131   17.23234387512855    6.13016342060123
H         2.58596150404712   17.03182959515964    5.09206172209418
H         3.69576957348195   17.90412950977033    6.13771891102021
H         2.00463822372875   17.75076272698587    6.60261359085770
C         0.61646105794714   14.62525474886647    5.74166576509843
C        -0.23229232220587   15.85976347568565    5.45065672216389
H        -0.86078360071460   16.12517667873685    6.29703203394237
H        -0.88682832037300   15.64774112545243    4.60517319172698
H         0.37825325612919   16.71826592340797    5.19195270624893
C         1.45140662661391   14.25252077859566    4.51656944460144
H         2.12301789496535   13.43020266271208    4.76664615866966
H         2.03508225808848   15.09552251446301    4.15697410788733
H         0.80148440975932   13.92779826181725    3.70432465779570
C        -0.29940783645906   13.43512835159865    6.04626479300017
H        -1.02687658593123   13.67492123668157    6.81831897319324
H         0.30184346448947   12.58083035479960    6.37479165801613
H        -0.84808399883882   13.14186388675496    5.15227714291687
C         2.73949807237659   14.08093335660411   11.96204207018875
C         2.06101366461130   15.02517078346247   12.95216721245262
H         1.82287691140571   15.98449561730648   12.50005753467146
H         2.74335160623562   15.21129033956675   13.78174741212146
H         1.15031404006053   14.60053369462753   13.36044908143272
C         4.05024638636525   14.71716019797586   11.48235531402586
H         3.89702733525143   15.73892324172646   11.14202890141613
H         4.48024129536178   14.14013584531958   10.66159235251582
H         4.77525374238302   14.74572082503940   12.29514729078537
C         3.08591915181810   12.76134591397417   12.65404415231354
H         3.46975165480382   12.04262095366285   11.93058177387666
H         2.21999625168586   12.33346925616752   13.15249726161307
H         3.85307455837687   12.92596986276745   13.41070876760782
C         0.25561432042793   12.61755364101756   10.79365194954649
C        -0.51166627305660   12.96760743054227   12.06303887314079
H         0.05304971702055   12.71749701849576   12.95693317457755
H        -1.43918815041206   12.39508417234095   12.08874756416007
H        -0.77246777414753   14.02386171313559   12.09231698476207
C        -0.66595220244223   12.75557595670227    9.58119134539755
H        -0.06662717460770   12.63449379974449    8.67221412936355
H        -1.16911876822318   13.71925275826510    9.56600582350075
H        -1.43041525232756   11.97920872971916    9.59613732637326
C         0.72256904483864   11.15985329409527   10.81823657464663
H         1.26362143448402   10.94732656252800    9.88909058082548
H        -0.13512746209077   10.49011478645946   10.87781192158617
H         1.37743010082886   10.94593892540200   11.65699706263541

