32
CSD_code = QUMQUK | q = 0 | S = 0 | Stoichiometry = C11H17Cl2PRu | MND = 9
Ru        3.75943091724713    4.35012414750345    4.79688258934447
Cl        3.27120773141601    4.29196916649731    7.08947924318701
Cl        1.61057109150953    3.46522915588570    4.40179854469993
P         4.24995813596293    2.15348712965425    4.97939858502335
C         6.07126784358110    1.91280450086759    5.13192215408556
C         6.87597102417121    2.53317919737787    3.98930286905039
C         7.06002608150100    4.05343859461970    4.11038557642951
C         5.78355975032893    4.84911599235673    4.05159057576103
C         4.92726366349560    4.76827813691721    2.91261515848170
C         3.74632777325478    5.52018772479711    2.86220301224693
C         3.43668921223310    6.45102651439201    3.89170146361800
C         4.29898231276336    6.57603855847547    4.98153305994210
C         5.45828224330927    5.76394680493262    5.07680431713630
C         3.59027212559924    1.18962648802748    6.36942427895085
C         3.78718944579381    1.11907245611833    3.54807347409994
H         6.25334989829842    0.83499914983391    5.16909779014441
H         6.37310032500470    2.34348334559458    6.09102512602384
H         7.87290730937050    2.08531674466183    3.98012693195129
H         6.40126955699161    2.29061861635855    3.03615332088761
H         7.57239740724226    4.26917900823677    5.05119711480432
H         7.70922150870951    4.38375944892721    3.29213779233159
H         5.21107405066135    4.15123496366497    2.06726937237522
H         3.10263056920294    5.45449070790043    1.99175986828135
H         2.56072897501339    7.08231828361280    3.80348309163652
H         4.09757115473590    7.30605624485925    5.75765401409872
H         6.13157899471645    5.89544551492585    5.91687480282592
H         3.94258671621894    1.62334482654728    7.30398152525041
H         3.89438556500776    0.14646324500232    6.28120146274727
H         2.50289408355949    1.27675004680220    6.33524460787423
H         4.18860558201877    0.11372259660071    3.66964820785986
H         2.69867879773807    1.09354509801482    3.51250320953680
H         4.15202015334171    1.55684759003328    2.62132685931280

