49
CSD_code = QUMQOE | q = 0 | S = 0 | Stoichiometry = C21H23Cl2PRuSi | MND = 9
Ru        1.16846594778949    9.08126576226724    0.74560898062355
Cl        2.12743145654775    7.51351347765062    2.22925136166151
Cl        2.39657444982336    8.18762318700769   -1.04541174380572
P         2.85717653195675   10.24580346791213    1.71700028005072
Si        0.43429347555634   11.40206609600967    3.21223771417047
C         2.24224856025935   10.77090622854962    3.36114829663475
C         0.37633794279597   13.26293427324307    2.80315096358561
C        -0.52602595839258   11.00297114955019    4.80570118505230
C        -0.27265504248649   10.40763066312590    1.75661863962932
C        -0.11366389989813   10.88061529136892    0.42021039114005
C        -0.34265627137509   10.03210051194364   -0.67084944497197
C        -0.81626327819174    8.70799255803519   -0.45794221131240
C        -1.01754686197218    8.24226975290928    0.83721879010444
C        -0.69596183212937    9.07728365691669    1.94056537745666
C         3.25646872769290   11.77550227680575    0.81095564109804
C         3.25259937854315   11.67674578371763   -0.57849825244277
C         3.57542967176371   12.77397550552187   -1.35534560531945
C         3.90488413250405   13.97701102939326   -0.75119010664945
C         3.92360524636843   14.07513297492913    0.63043348058834
C         3.60671480845734   12.97830528781333    1.41296203819876
C         4.52986122953329    9.59485951630360    2.00988445820493
C         5.03900523418911    8.66926438993988    1.10397650527034
C         6.32165089034049    8.17894373846413    1.26587166165336
C         7.10393825411698    8.61187957728855    2.32382156233039
C         6.60243426247420    9.54155016543911    3.21938634575710
C         5.32066642240763   10.03799423897714    3.06485209043758
H         2.91438818774383   11.49824269217916    3.81316789569549
H         2.27110637836599    9.85768778872451    3.96319043454557
H         1.00871306124090   13.52711057149861    1.96035091820917
H         0.71275074385722   13.84002742008840    3.65797091239157
H        -0.63680147544260   13.58179678307108    2.57809105973321
H        -1.58851295315208   11.18371414045387    4.68094372840404
H        -0.18175495268780   11.63732225579364    5.61476338417088
H        -0.39575632261006    9.97256342827038    5.12119482722946
H         0.15576592603437   11.91700105501312    0.24451969154498
H        -0.23346189897615   10.40336006729021   -1.68403472827318
H        -1.04749716232559    8.08059514862300   -1.31164250709670
H        -1.41406818499767    7.24879014344330    1.01031724628250
H        -0.85189004095712    8.69818173601749    2.94452270895726
H         2.99633573613792   10.72676959401209   -1.03482607898956
H         3.57049962194740   12.69179771216077   -2.43202545519379
H         4.15251175781355   14.83731299242341   -1.35541471596603
H         4.18869462278219   15.01051297245236    1.10202539369496
H         3.63345799020648   13.06761059729325    2.48881281416016
H         4.41496749130489    8.32562664706245    0.28949954708866
H         6.70829845580607    7.45271383385501    0.56691721350288
H         8.10364489043783    8.22391318489919    2.45395392264616
H         7.21080830740769    9.88029169092112    4.04577067278621
H         4.94388634138963   10.76021698337045    3.77381271532921

