87
CSD_code = QUMSAU | q = 0 | S = 0 | Stoichiometry = C45H35IrN2O4 | MND = 6
Ir        3.21107313255642    5.18457970445464    4.55618719290131
N         2.74178233968951    6.28261836061329    2.93663566513394
N         3.72475155261017    4.17861491143465    6.22731831865713
O         5.31974150290590    3.71413084297113    7.71800859790622
O         1.47972753589417    3.93568781818256    4.06294834447993
O         4.37533031143005    3.67571665239824    3.47218276668689
O         1.44182574764273    7.85892899622077    2.03910525593174
C         1.99228569675592    6.54828585852429    5.41550966529060
C         1.18533536407208    7.59930824714860    9.56382665686468
H         2.22881916154308    7.50656162693802    9.30054703988944
C         4.91692280930457    6.15872158014602    5.02062780176257
C         3.03943067117356    6.34395233722234    1.59887168718071
C         4.92859059364286    4.47858969004787    6.68604826276163
C         1.80587456046627    7.19319119040389    3.14677415261215
C         0.14890338928310    2.18169777507790    3.20561558002126
H         0.16122336405817    1.19184821026304    3.65821964585681
H        -0.05371843800650    2.06876174787601    2.14269709153317
H        -0.63848911882626    2.77757896487576    3.66116678295405
C         3.26902413480290    3.14340588645844    7.00400547257721
C         1.60046786338516    6.67206064113712    6.73971941179528
H         2.04450377765568    6.03443019789230    7.49107020020925
C         4.28375435747153    2.85521003221205    7.93782267114271
C         4.15270138244439    1.85444224137718    8.88085509201237
H         4.93757497148045    1.64330790068399    9.58860527404324
C         6.92220599616476    5.97823299574381    6.43932543980185
H         7.44111796742288    5.48396525979673    7.24789170803044
C         1.33949784567746    7.39158730948175    4.48177799871178
C         5.64398903863434    5.55338590405573    6.07532134043755
C         7.47644578846306    8.69146901762569    3.91039557563033
C         3.95387127687062    5.65912561780944    0.80999891002742
H         4.59702032216495    4.91382890383233    1.24710492298495
C         0.61810791469110    7.57851700741768    7.14065385129963
C         1.49210891835860    2.86378602106629    3.41144804281234
C         5.54624547347669    7.19671705179981    4.35092615869031
H         5.03210592760060    7.70716861955231    3.54885911439599
C         2.25567414626894    7.66318374942664   -0.30060708502418
H         1.61596482462457    8.42492450263055   -0.71532135034738
C         0.00158979028210    8.39579208474704    6.18757595828863
H        -0.74513773377631    9.11043473437881    6.50091317536483
C         7.51068245965117    7.00784339138200    5.74201489981533
H         8.51311603896888    7.32525762479571    5.98874875282068
C         7.33734603045119    8.74336215397826    2.52367352059698
H         6.76046543087252    7.98211102624698    2.01881032925027
C         2.07827361671464    2.42957621138754    7.00985768153961
H         1.29960835179671    2.66621512318670    6.30443320511678
C         3.99703252226182    5.98635064868996   -0.53083822540827
H         4.69458139158318    5.47598838724917   -1.17786155913809
C         6.83267788247397    7.62210430226190    4.68400591360939
C         2.59916315992686    2.21512329780327    2.85702983173368
H         2.40858516447294    1.29227683108700    2.32899445823386
C         3.16494876247840    6.96400396667442   -1.07598138577661
H         3.23437179186820    7.18515940200959   -2.13006860603500
C         0.35824905766929    8.30751199225692    4.86209451082191
H        -0.11112766612079    8.93111463740240    4.11506434780518
C         2.21127955738343    7.33786868015474    1.04119133274831
C         0.81650841742817    7.67922985999069   10.89337919727427
H         1.57674637260578    7.63269283774327   11.66071412163361
C         0.22866524335764    7.66610328913573    8.55391707986769
C         1.94974456072132    1.42883111524543    7.95250692006159
H         1.03925007035341    0.84987591493765    7.98857928163120
C        -1.10843969143940    7.81156472884116    8.92086045631207
H        -1.87008792469764    7.84414034609947    8.15552330414786
C         2.96416638448282    1.14470005121690    8.86658514583590
H         2.81801399767674    0.35250169778104    9.58482549846079
C         8.71843735439028   10.71745451611682    2.41294187682675
C         8.24544577640453    9.67127383895796    4.53273446609045
H         8.34999478816076    9.66371610487159    5.60786399414881
C         4.94762814087759    1.75074837650104    2.22741611465949
H         5.94553326593339    2.16147126094647    2.36243635684928
H         4.72409413280183    1.68719030069933    1.16403611330508
H         4.91131778240852    0.74668053929876    2.64460184673975
C        -1.47198572175199    7.88289181141344   10.25047212634754
H        -2.51479228496857    7.98767042010394   10.51607598280633
C         7.95193872858468    9.73764505374114    1.79032787100136
H         7.84028649195089    9.75686111348717    0.71506221139377
C         3.92821789082297    2.64185211960486    2.91926482427330
C         9.38019358880055   11.78850971661367    1.60042028564940
H        10.10174343581804   11.34959641016516    0.91177841012360
H         9.89928479231449   12.49875152981729    2.23904001641725
H         8.64179138227400   12.32709710142448    1.00766830060216
C         8.85233870963882   10.66958553415088    3.79380905251162
H         9.43901020633736   11.42437745508423    4.29878951812404
C        -0.51570885952158    7.81968381053119   11.25835268642297
C        -0.92584336282340    7.90987679527170   12.69679422094149
H        -0.07898121250449    7.73489971393326   13.35560780728452
H        -1.70012325490135    7.17712601450198   12.91976015588017
H        -1.33248691438499    8.89798275128565   12.91215335734348

