111
CSD_code = QUMSIA | q = 0 | S = 0 | Stoichiometry = C56H46Cl2HgO4P2 | MND = 4
Hg        3.36565760771833   -2.10825203793105   -0.00666075717021
Cl        4.42053143482451   -3.95297253390819    0.79314483864667
Cl        2.31352053338982   -0.25989883763769   -0.80136816959866
P         2.10621704716157   -0.88274223436733    3.83034912832579
P         4.62622009496546   -3.35223504333934   -3.84193655419938
O         3.92307315123303   -0.96643804659624    2.12511488273927
O         2.49231799263447   -3.26333856178159    5.51608092747584
O         2.81470392972316   -3.25236505247244   -2.13874224002352
O         4.22888231650924   -0.98768917602563   -5.56357599760601
C         3.62961303827205   -1.71560941747234    4.22578993640392
C         4.45870255135153   -1.56237007768203    3.10627723371673
C         3.57056106756361   -2.75809586174293    5.22144248978576
C         5.87575973789007   -2.04342638159319    3.04909558499149
H         5.95085663972014   -3.05564324459990    3.43864995917450
H         6.50930635586777   -1.39282996482709    3.65035893274505
H         6.21876594152510   -2.02701188425121    2.01742814628410
C         3.10326988399670   -2.52246527974381   -4.24590199586563
C         2.27672984250930   -2.66336577679640   -3.12357774006102
C         3.15496240420870   -1.49534290132767   -5.25857651238687
C         0.86262604025225   -2.17438060902622   -3.06491104862374
H         0.22056571523687   -2.84023990139819   -3.63971390165429
H         0.78656403056365   -1.17391869233867   -3.48259956602656
H         0.52962694213191   -2.15996306803590   -2.02980249787174
C         1.03978437094534   -0.89268584972688    5.30300761432746
C         1.60264480848600   -0.76085455265083    6.56957682871275
C         0.79453396660644   -0.72254744983022    7.68917343777695
C        -0.58178845621945   -0.81297972782717    7.55725692858566
C        -1.14560050541432   -0.94917437641928    6.30098528095852
C        -0.33962579057634   -0.98802796644139    5.17650835870895
H         2.67761410781920   -0.72312174365007    6.68267774340862
H         1.23961430152981   -0.62953891318175    8.66901302549445
H        -1.21144692692828   -0.78682249698443    8.43420577486796
H        -2.21741187172851   -1.03084851979633    6.19432167690117
H        -0.78536141385555   -1.10634791071617    4.19911403959266
C         2.38499065793464    0.89215168591115    3.54979300399734
C         2.65924363034623    1.69353362695679    4.65471747402864
C         2.89940256649790    3.04553734306513    4.48960434340098
C         2.86566836827055    3.60752599567023    3.22388973427164
C         2.59961686281799    2.80982365096294    2.12367575883091
C         2.36210516055377    1.45583214598182    2.27983923308645
H         2.68149909317049    1.26348509064173    5.64547212054431
H         3.11283760226507    3.66064536252392    5.35178562921433
H         3.05056075500437    4.66419321471053    3.09700005286016
H         2.58176705417281    3.23649051101193    1.13202705184053
H         2.18820449398949    0.84071037377753    1.41214613652233
C         1.11356325858953   -1.59938565741176    2.49557342393675
C         0.14535561468161   -0.86942751726037    1.81211947965283
C        -0.58585343627096   -1.47726722741471    0.80675317107320
C        -0.35254648167880   -2.80341687069221    0.47572012370307
C         0.60717857260085   -3.53792007582095    1.15971936914545
C         1.33579768896663   -2.93942597788629    2.17931017682768
H        -0.03342218630564    0.16637885145616    2.06550210781166
H        -1.33493713497936   -0.91020137913260    0.27383360954452
H        -0.93046121533562   -3.27367831343884   -0.30721996388182
H         0.76907072271772   -4.58025249258332    0.92226067562996
H         2.04453701157388   -3.51435574805058    2.76345350203399
C         4.83794864084274   -3.17687988543462    5.86985525749494
C         5.04513111939414   -4.51724951655141    6.17864448502765
C         6.20407389664100   -4.90999127476935    6.82239444742458
C         7.15162905070922   -3.96560763249177    7.18208023503193
C         6.93908475921192   -2.62579209840146    6.89803460622943
C         5.78910005548330   -2.23074283625605    6.24058129461112
H         4.29046245525780   -5.23814991644559    5.90217070524865
H         6.36681246065327   -5.95299925980128    7.05069608210630
H         8.05420242832901   -4.27185880526739    7.69044991855711
H         7.67235188428184   -1.88866542398710    7.19187832066480
H         5.61236700541855   -1.18599015531136    6.02555631692786
C         5.69475161059080   -3.35022134412819   -5.31333068532606
C         5.13418766975429   -3.49297780308321   -6.57981535384705
C         5.94374832616067   -3.53551359925811   -7.69808845590559
C         7.31958510997107   -3.43906175372533   -7.56508803127161
C         7.88126934761562   -3.29303647552688   -6.30901293056517
C         7.07362917887759   -3.24940093476154   -5.18585385071384
H         4.05955471113041   -3.53600720200971   -6.69404985332728
H         5.50013230568430   -3.63630952849535   -8.67782514711288
H         7.95039297655687   -3.46800882939511   -8.44110434009162
H         8.95265196913388   -3.20709339025508   -6.20129231534127
H         7.51798408838039   -3.12316017591339   -4.20882559939952
C         4.35026416562990   -5.12595929456560   -3.55027127887707
C         4.07897623102552   -5.93429879439405   -4.65087172870438
C         3.83817321623965   -7.28524287688690   -4.47823523849099
C         3.86790720580663   -7.83935767077590   -3.20900546788759
C         4.13278293392837   -7.03511978406908   -2.11322895255739
C         4.37140752246739   -5.68217315031806   -2.27698307270999
H         4.05963747147755   -5.51078427238476   -5.64443392036214
H         3.62700355358524   -7.90533157574101   -5.33737568249772
H         3.68093712754868   -8.89489911188999   -3.07599186931235
H         4.14856597779956   -7.45596566267781   -1.11906643043040
H         4.54503631135848   -5.06227281624583   -1.41264764392175
C         5.61567006399291   -2.62197937391454   -2.51204666202427
C         6.58547208448309   -3.34371312154501   -1.82228323559453
C         7.31306343634841   -2.72631029473636   -0.82003323054549
C         7.07387912474497   -1.39907040296658   -0.49798218530338
C         6.11306885067669   -0.67243208211454   -1.18899696715542
C         5.38878164256035   -1.28034315007758   -2.20595688374028
H         6.76835018095348   -4.38052718575454   -2.06835704342079
H         8.06374508679018   -3.28686891360349   -0.28249064322008
H         7.64805748630290   -0.92135243923988    0.28318548992123
H         5.94723165611470    0.37086506133962   -0.95865255464946
H         4.67891072743407   -0.71216100629720   -2.79530570907370
C         1.88387667546432   -1.09897340709909   -5.91388140402470
C         1.66859717850301    0.23300452874653   -6.25213491676149
C         0.50527276399905    0.60523573859416   -6.90003113547264
C        -0.43843577401208   -0.35197212464366   -7.23530232514139
C        -0.21751515512443   -1.68404894318397   -6.92268224699550
C         0.93673157770992   -2.05831726327010   -6.26046853437564
H         2.42013079154588    0.96385888000136   -5.99361826806216
H         0.33588571940095    1.64211056646145   -7.15039936819892
H        -1.34422077483370   -0.06185676457653   -7.74737072103973
H        -0.94731983382526   -2.43163010395795   -7.19839108097030
H         1.11955417429808   -3.09712784783477   -6.02292619742205

