66
CSD_code = QUMWEA | q = 0 | S = 0 | Stoichiometry = C23H40NPTi | MND = 8
Ti        5.15379776124732    3.96709137961683    3.04539365447459
P         6.23195157565992    1.22967444974362    4.58411397753808
N         5.73672048394097    2.50446495687459    3.86114299682124
C         4.21141431048542    2.95415824223897    1.08902030876467
H         3.73825140574890    1.98293407209014    0.99140330469598
C         5.54956265717065    3.25383018585874    0.77201337493122
H         6.28871683068908    2.53402938993466    0.43464442080566
C         5.75304389117303    4.64331828749847    0.84565035190703
H         6.65382096446214    5.16652838680506    0.54638907561492
C         4.50033166325306    5.24683645966648    1.13928961225888
C         3.53047868680261    4.18742004003148    1.28678592688401
C         4.08100633717961    6.58639179543569    1.22274708695383
H         4.79655171429779    7.39014145054703    1.09243877655432
C         2.75021673089168    6.85865313538509    1.42178754436383
H         2.41276900789220    7.88462327062621    1.47089138291106
C         1.80339357022372    5.82662202714734    1.54708367579882
H         0.76366698463314    6.08800766813178    1.68630115603427
C         2.17474851006190    4.50679730394221    1.48549269354605
H         1.43529525611604    3.71743678480030    1.56118465919168
C         6.62424922716253    5.30989555979408    3.68101134774375
H         7.60359277144193    5.09019471122275    3.23048026647452
H         6.76989469499607    5.36106046928286    4.76747306684154
H         6.32345638359546    6.31354505748926    3.34933857744007
C         3.68475581506680    4.56282172982637    4.39299764387483
H         2.81783572877117    3.88567886992253    4.35392669113413
H         3.34077693854724    5.55505072672729    4.06700702496558
H         3.97787898504730    4.65549750319785    5.44682671821774
C         4.70545002761067    0.13496466489457    5.03054572605187
C         4.99700895256760   -1.31674001381760    5.39370451601095
H         5.36477357361390   -1.88268086695179    4.54212290267038
H         4.07472675551537   -1.79150745622240    5.73054889371006
H         5.72444801216820   -1.38776105902667    6.19723226909423
C         3.73099689908417    0.22191626765202    3.85423700010383
H         4.00127409876093   -0.43474080539645    3.03406131745814
H         3.70026221256224    1.25804465024371    3.49667208861256
H         2.73128749837244   -0.06011988019154    4.18380716134351
C         4.01368357123949    0.83157109761726    6.20240708034661
H         4.55582348091073    0.69628950102538    7.13296457683830
H         3.01701110529855    0.41263803436573    6.34370630036349
H         3.91255118667392    1.89451532421823    5.98132113989271
C         7.41535642793988    0.27615075081704    3.38782545240863
C         8.30280975186523    1.32476676316206    2.70909144170416
H         7.73217722766555    2.25106877651338    2.57357180161735
H         8.62090904279627    0.96521184254725    1.73071087289248
H         9.19905168521846    1.54353136818969    3.27982340217687
C         6.52014788057152   -0.31170283213319    2.29643744295008
H         5.83396410744004    0.45571399830996    1.93846116695640
H         5.95782367265757   -1.17017791081309    2.65185864289672
H         7.12962032006608   -0.64877177781625    1.45715687992104
C         8.26193764277473   -0.83277133493288    4.00260058226813
H         8.99859435353190   -0.44108930667125    4.69848245388486
H         8.80171419645817   -1.34963906823330    3.20810072521091
H         7.64794026247618   -1.56292523374106    4.52196848495058
C         7.18690464811206    1.71159509664297    6.19288711763759
C         6.40046908519992    2.84175488694824    6.86141453120356
H         5.60859461038077    2.47706154669389    7.50648751210088
H         5.97019500507400    3.48201531406685    6.08524936848838
H         7.06941590608456    3.44308103503096    7.47615516647621
C         7.46584963159637    0.58404958917850    7.18051879188590
H         6.55233804858719    0.20167182879136    7.62730425568388
H         8.09151010457777    0.96697990244507    7.98749850618996
H         7.99243678712164   -0.24101617935722    6.70984137471964
C         8.50633155644425    2.32649367707853    5.72652403623005
H         9.20161895034184    1.57360086864466    5.36859288843509
H         8.98712064302281    2.84244888205181    6.55784121718880
H         8.30529219105863    3.05430414434227    4.94022959468143

