94
CSD_code = QUMXUR | q = 0 | S = 0 | Stoichiometry = C31H55N4NbOSi2 | MND = 5
Nb        8.41890404848644    3.75649186255700   17.82833265833340
N         9.79888846407454    4.08168092810196   18.89549808380373
N         9.26216363343466    3.31853490779660   16.05313847289430
N         7.88185180724380    5.64492774836321   17.13558586884671
N         6.15562310872100    3.66245469776516   17.09685362379235
O         7.78320679520435    2.05880404184566   18.56838924759914
Si       10.89177671287361    3.51904232719516   15.50040150140084
Si        7.21275772906201    6.93184602870333   18.04444344932329
C        10.76831910076658    4.33419205301829   19.89555616686769
C        11.18591169473606    2.99683327269070   20.54125977019560
C        12.00386829340586    5.03293408003016   19.30002281202834
C        10.14785251835713    5.25258356499304   20.96828687291683
C         5.13296534537958    3.47902954426132   17.92033942509352
C         3.82009050526421    3.69886584187548   17.54958254288533
C         3.57246555835550    4.12989760303969   16.25368437470313
C         4.64045916066964    4.33510138465048   15.39959669562771
C         5.93607261254547    4.09143964957747   15.85226563954682
C         7.17822386361222    4.36909861233452   15.06214449021126
C         8.16075635320701    3.14816008271423   15.15220314664961
C         7.80506641862743    5.65525582943211   15.70359102287558
C         6.90120948422485    4.66261686121515   13.58557632614672
C        11.07510472140678    3.03871734098517   13.65279903341907
C        11.98012105643028    2.35031291927494   16.55338517850244
C        11.46109750403722    5.34145545137735   15.70756485820653
C         8.48535886828306    8.33815885717380   18.34192434288079
C         6.66050706886200    6.20465325554618   19.72953694735993
C         5.66963879983652    7.72369856585935   17.21956979182560
C         8.18985814119448    1.09553004967679   19.38402311999793
C         8.90525163380211   -0.00633861240910   18.86472544083308
C         9.28444418753723   -1.03061841131720   19.71387468685372
C         8.97777737982147   -0.99282574387386   21.06273047642902
C         8.27775588466870    0.08235529203277   21.57438101654017
C         7.88262109871919    1.13191365091297   20.76046841373071
C         9.17549151580672   -0.03012303287331   17.37674838763223
C         7.89586909120122   -0.45148931311390   16.64196915571773
C        10.33072148476299   -0.94264943408878   16.97372669503138
C         7.08071772785707    2.29150973603796   21.30837373433897
C         7.57346874174977    2.77163064582779   22.67381982867473
C         5.60258855542257    1.89309122394408   21.39948740162827
H        11.81232838529067    3.16876454380427   21.41319271336114
H        10.29503933716937    2.44375288587461   20.83331482438508
H        11.73562362705728    2.39469629654410   19.82278687758682
H        12.75846808926423    5.18326184297232   20.06844722667623
H        11.71300733476468    5.99651808335298   18.89082068388279
H        12.41663364108134    4.42636799496327   18.50075077327468
H        10.88012268432506    5.49364093312175   21.73520850353032
H         9.29915608527406    4.75371223632913   21.42867743039282
H         9.80128174375932    6.17010816680618   20.49781270856201
H         5.38561474709050    3.12852592213229   18.91348507951603
H         3.01650596007859    3.53377997737263   18.24984711658261
H         2.56196210758662    4.30726202564331   15.91534951690292
H         4.46395448121621    4.67433995206648   14.39239221873505
H         8.53255214327591    2.95390194139955   14.14020402333724
H         7.57382265680237    2.25923068985382   15.44398759631207
H         8.81333368789799    5.75365126187134   15.27118556168023
H         7.20620977546958    6.50462814393556   15.34759393392879
H         7.84062430089169    4.87240302600073   13.07728909865748
H         6.26017990725849    5.53389090058902   13.46367224162388
H         6.43136323625005    3.80706974165023   13.10181113744085
H        12.12067182357225    3.07027527960341   13.36782133078268
H        10.71540824664901    2.03347192091339   13.45652644994111
H        10.54210139365436    3.71977722592656   12.99631554979803
H        12.99448211733644    2.72434870701798   16.64302491797434
H        11.54820852403821    2.27242055320714   17.54900997623650
H        12.04043787186501    1.35355019280688   16.12882896825541
H        12.52780842879202    5.40842545137614   15.89420964162711
H        10.94011786284305    5.77510405767635   16.55948976731305
H        11.25044830799471    5.94840217751904   14.83064827322758
H         8.10865147076922    9.07326737021369   19.04566424210422
H         9.41475530018629    7.93983223037767   18.73808774364329
H         8.72108907078173    8.85849936541859   17.41837348683893
H         6.69520171071576    6.95464642397189   20.51274756265177
H         7.33073473445816    5.39086901278432   20.01448590637558
H         5.64368474492853    5.82019280963784   19.69255047885985
H         5.16197771135950    8.39033066408583   17.90837588794561
H         4.95101637420365    6.97382732998538   16.89765790660152
H         5.94637721461362    8.31064297687140   16.34932287022866
H         9.82438486799204   -1.87939512961858   19.32433732188663
H         9.27827317481537   -1.80310084780428   21.71033321160677
H         8.03276856280648    0.10246737369626   22.62562497380306
H         9.42846257557210    0.99910161789612   17.07595834981191
H         8.04696385908565   -0.42935799265090   15.56336137943882
H         7.61105243922967   -1.46227866457277   16.93192378568064
H         7.07512604764996    0.21795794210134   16.89704300955962
H        10.56663494624768   -0.79256688692171   15.92182968509485
H        11.21693830968009   -0.72069588356899   17.56262584163528
H        10.06924553014892   -1.99007759617776   17.11091673955684
H         7.19049039579807    3.12599717736418   20.59429454124155
H         7.10669078590643    3.72268844535589   22.92462375464933
H         7.31781775895536    2.05769068102193   23.45339911161055
H         8.65252908188514    2.90282479578888   22.66822366098019
H         4.98718359227268    2.74696815279799   21.68014473364995
H         5.47484652325611    1.11438300417558   22.14934202898647
H         5.24920803843437    1.49683013231756   20.44898694271080

