110
CSD_code = QUMYAY | q = 0 | S = 0 | Stoichiometry = C39H63N4OSi2Ta | MND = 5
Ta        2.39322500275150    1.93120065493374    3.78069233879459
N         4.07184671324583    2.55304656469623    4.06112671565310
N         2.72337862800593   -0.01059090216999    3.23722842589871
N         1.75774631755649    1.47641801779614    5.70394702754047
N        -0.10779161082553    1.30020427160318    3.61593219563152
O         1.60574790032887    3.28722189404203    2.67369624212294
Si        3.95780595229910   -0.72615205397194    2.24108058159226
Si        1.20270514777440    2.61726546789725    6.86224281597897
C         5.32101520706124    2.95449741355925    4.33674650955350
C         5.99332905811010    2.48309644482559    5.49703866847284
C         7.30469704165057    2.85308352193976    5.72650817051087
C         7.97210922917297    3.70964151998493    4.86726079349749
C         7.31085666808958    4.21706309406944    3.76356616164651
C         6.00651547632138    3.85597462911176    3.48070683792931
C         5.25727965337265    1.56096602084849    6.44095169478906
C         5.27548570881709    4.45531950018433    2.30324022780350
C         5.49596017697741    0.10654660644067    6.02396157382008
C         5.64175526714527    1.76775880596645    7.90660746441692
C         6.08096966429296    4.39469310219482    1.00596303745234
C         4.89791752164103    5.90356381524993    2.62454941491505
C        -1.06084093557000    2.13630359911418    3.23051930280429
C        -2.39085213768927    1.98022301359594    3.57095676048249
C        -2.72954534920823    0.90301648386699    4.37533672090732
C        -1.73581257116858    0.03193478918825    4.78431919437159
C        -0.42170165641714    0.25005277778909    4.37491225699269
C         0.73670363011699   -0.63463900128560    4.73928683632790
C         1.59550064876155   -0.88927212889389    3.46235394003961
C         1.55422797539052    0.06419878911397    5.87111417746699
C         0.28198843599057   -1.99969154662657    5.27028570447314
C         5.36659676786254    0.51031274326508    1.93785357609435
C         4.63755816831075   -2.32429576429592    3.06856034040415
C         3.24661714190666   -1.28388472833907    0.54168553071289
C         2.38095514148735    4.11887080796236    6.78311481945590
C        -0.60596546930830    3.21211423122636    6.56201372244302
C         1.22985822848321    1.87635654234339    8.62814353045187
C         1.66058517540969    4.31801639732981    1.83204074640449
C         1.27553002007981    5.60337299274477    2.25803041630803
C         1.32988340948846    6.65558091022937    1.35790397528328
C         1.75454652668784    6.46138821088353    0.05778841739509
C         2.10476110200406    5.19194441789129   -0.36814040252007
C         2.06092218231520    4.11054376809486    0.49442091582960
C         0.74500799388877    5.80021637306155    3.66020313748970
C         2.35071919769618    2.69683221862248    0.03901673630351
C        -0.76416217156033    6.06511444982941    3.61360253427041
C         1.45047402873872    6.93489825535367    4.40140973949590
C         1.01935220207926    2.00286558782129   -0.28011152925123
C         3.28973301877848    2.61200026299658   -1.16200753195547
H         7.82422746321091    2.47549898015585    6.59433018206544
H         8.99671077877815    3.98907763959359    5.06494878707273
H         7.82732311295035    4.90788120518081    3.11338668850553
H         4.18890279186565    1.77161621455644    6.33118791387806
H         4.34843495117848    3.88570834847273    2.16952163468243
H         5.00933169676497   -0.57304270934586    6.72217015811897
H         6.56168953350271   -0.11651388850045    6.01085389503301
H         5.08817694555268   -0.05182176723583    5.02831543359185
H         4.94209396456247    1.23699782254656    8.54920479971067
H         6.63916879157467    1.38666144052219    8.11352706909397
H         5.61346198547529    2.82339526779194    8.16483055996881
H         5.47604852109906    4.77004942836975    0.18259709820772
H         6.97544049953975    5.00940884982620    1.06963997783378
H         6.38164054349855    3.37254218093120    0.78901380957517
H         4.28392404385484    6.32325098669596    1.83056723203811
H         5.79022478696454    6.51502678835683    2.74269140673476
H         4.33365094966840    5.93441714032082    3.55284000487718
H        -0.73206070058001    2.96384871565771    2.61607803011098
H        -3.13391446422861    2.68083859430804    3.22471136838615
H        -3.75368266155118    0.74269394120945    4.67926264794421
H        -1.98797514204145   -0.80832765313158    5.40898541367856
H         1.96889891970719   -1.91652085388360    3.53428885863311
H         0.91393374635353   -0.86831035535319    2.59377528164282
H         2.53061996071456   -0.44227796802160    5.91002600787956
H         1.03603957907148   -0.13474349845177    6.81467906232647
H         1.15473560818669   -2.60065529210444    5.51649172213511
H        -0.31233466507948   -1.89985300433011    6.17575192597592
H        -0.30195245035421   -2.53094106485314    4.52031489390027
H         6.07268342313442    0.10109184971229    1.22302831635728
H         5.90677421899757    0.73499007512537    2.84943294915484
H         4.99629992100924    1.45118572871480    1.54754962695028
H         5.66733352949223   -2.49225732630289    2.77137848881515
H         4.61726418903525   -2.26856835831823    4.15237952803658
H         4.07123614350350   -3.20174169940232    2.76967223982077
H         4.01298262205422   -1.77213431497149   -0.05178110713689
H         2.43165393382842   -1.99204818673725    0.66370022807626
H         2.87004355940151   -0.44630298071946   -0.03649903505479
H         1.86267950868249    5.03826851516717    7.03423533449901
H         3.20389534703435    4.00916765386885    7.48115282883460
H         2.81165787467919    4.22801778376450    5.78969775529595
H        -0.89432231056761    3.95923027661972    7.29503134403330
H        -1.31775301717436    2.39334873742540    6.63722465815482
H        -0.72387966361226    3.65775996959003    5.57836322144001
H         1.11160302049399    2.66157952636453    9.36652914371010
H         2.16588150967364    1.36805894423136    8.83341835209971
H         0.42347639666942    1.16589109910681    8.78193661823382
H         1.03138080273768    7.64343291647978    1.67579888606040
H         1.79801712097521    7.29334332564927   -0.62946422515171
H         2.40996503139678    5.04858585643309   -1.39290533920277
H         0.92236621674947    4.87167828663599    4.21870786997692
H         2.82290372323292    2.16137836770814    0.87777208770487
H        -1.16732465506277    6.14086203856817    4.62187796700890
H        -0.96966745022029    6.99603147353521    3.08922878536343
H        -1.28409155136981    5.26325840707186    3.09265416516902
H         1.06749282569728    7.00753707268764    5.41739476912094
H         1.28545579862437    7.88896581047263    3.90685744070307
H         2.52025418577879    6.75201449100591    4.44937981249733
H         1.18915352367088    0.99275857259783   -0.64840569002089
H         0.47796657752013    2.56141603659742   -1.04264168989699
H         0.39781814495545    1.94337542999515    0.61114825580892
H         3.59221505851635    1.57883454904010   -1.32020005899120
H         4.18406985147606    3.20477688415961   -0.99284734432309
H         2.80026007042024    2.96131485673339   -2.06865851324988

