61
CSD_code = QUNBUW | q = 0 | S = 0 | Stoichiometry = C27H26F3NO2PRh | MND = 4
Rh        9.26630441625327    8.15346747288448    2.82316220002976
P         7.57598454276323    9.15913193710892    3.94673429352416
N        10.89010754328778    7.42534861346363    1.84006927333770
H        10.77312578645903    6.55223660648924    1.33327798106130
C        12.09673972401321    7.90610427285521    1.75121440785938
C        12.47383253766325    9.11348297080300    2.38919359989985
H        13.48469259662392    9.46380849272794    2.27999623998697
C        11.61217106701666    9.86601088155979    3.14984135601459
C        13.17914504929252    7.18762509576042    0.94186405107277
C        13.65130190091656    8.11961585695255   -0.18264846410623
H        14.09759286099042    9.02756765653371    0.21145635369419
H        12.81362144900173    8.39917834349604   -0.81839848099258
H        14.39477629378828    7.61359990475113   -0.79473697268634
C        14.34976372611833    6.83863719522078    1.87086923612978
H        14.80213416924309    7.72835417582853    2.29813196177710
H        15.11577307358712    6.30289382957225    1.31439197111714
H        14.00880985935764    6.20418820045297    2.68645279222922
C        12.67092219135180    5.88835350911920    0.30561970892588
H        11.85980952653245    6.07699011792790   -0.39636357935457
H        12.34245436945943    5.17553538316978    1.06077453919156
H        13.48239223267045    5.42410503584115   -0.25063853160642
C        12.15192160122722   11.15108622243821    3.79220498085865
O        10.39056212878497    9.66347561164322    3.41967711114877
O         7.43240205415769    5.93890333935270    2.06639619130493
C         8.17000245956405    6.78347627375421    2.33471124766297
F        12.04018826749628   11.12320858856996    5.13062040504117
F        13.44643251419224   11.39943618641543    3.52962576029121
F        11.47358947523302   12.23492422785164    3.37663631537795
C         6.47976045744825    8.02654273888581    4.86236790845302
C         5.10032929971301    8.14743886870494    4.95395370067193
H         4.59138671475526    8.95812860572387    4.45357360830008
C         4.37368999471660    7.21521675115976    5.67593115621596
H         3.29946543795763    7.30812698374370    5.74084378083679
C         5.01590528922774    6.16550313909889    6.31018451115500
H         4.44310828282773    5.44233148236295    6.87163297083505
C         6.39309047404167    6.03519787546077    6.21466721962134
H         6.89383110745029    5.21063431881679    6.70035964926012
C         7.11943607528724    6.95755374102141    5.48702578986001
H         8.19695528818364    6.86195504169599    5.37826609070306
C         6.45151724722741   10.15238666921356    2.91490153506798
C         5.57245773268403   11.08860844931071    3.45194856747250
H         5.55101220014139   11.25443979693622    4.52076094937020
C         4.74494203536609   11.81554496814832    2.61553100158130
H         4.06245133244693   12.54180259618108    3.03260117266974
C         4.79339274607504   11.61901858886318    1.24410850586485
H         4.14637120189907   12.19100480488570    0.59554298940772
C         5.67847526951608   10.70004483443754    0.70407573319052
H         5.72440076827940   10.55798342936096   -0.36562389021529
C         6.50697384808337    9.97034424922517    1.53762943193759
H         7.22215745243528    9.25528697497378    1.13566595783756
C         8.06292702343100   10.37273803752744    5.21348130618948
C         8.55100065633244   11.59959312127326    4.76971832621370
H         8.56213169841281   11.81574432827559    3.70981955568943
C         9.02689291270286   12.52659057685578    5.67614335219367
H         9.41225619002181   13.47219307084576    5.32486495613995
C         9.02405138780127   12.23508530197221    7.03119232300327
H         9.40309977088295   12.95665542258052    7.73963584442720
C         8.54321304545486   11.01531554173842    7.47592309283830
H         8.54438908897330   10.78605801853480    8.53182016625614
C         8.06880551481613   10.08069942094417    6.57179499841002
H         7.70236903828489    9.12538624868164    6.92162178982535

