57
CSD_code = QUNDUY | q = 0 | S = 0 | Stoichiometry = C16H30Cl2N6O2Pd | MND = 4
Pd        3.82995069706447    6.54215598876922    3.87897820430365
Cl        3.71637858638456    6.49889256577937    1.57992350738051
N         5.75148280796408    5.77922180866103    3.94109332997232
N         5.10383467973596    3.57057297041599    4.31743478676970
N         6.52594335218843    4.37538345940216    5.78914612034318
O         7.60131266939139    8.79460461576722    3.05270528423610
C         6.72245385189533    6.83951357474309    4.10555652376545
C         6.67368728361525    7.74875651735134    2.87422529818659
C         5.79047462022768    4.69776222002645    4.67621009037700
C         7.12032422338298    5.29629993371983    6.72881086112239
C         6.24995931714408    3.06343980228101    6.11971223527841
C         5.38144940241207    2.57036880781985    5.21823662408956
C         4.21407022829403    3.48200718141608    3.19249249789357
C         7.63284021552179    9.67825056508662    1.96243670883466
H         6.53071369609684    7.45571156080384    4.99750928838810
H         7.73406165216059    6.42143979068661    4.17224580472868
H         6.91292018192780    7.16413138539403    1.97307948184400
H         5.65086042114642    8.15894322937929    2.74560793064150
H         7.40674640409312    4.73615764867542    7.61651929927256
H         8.00508325055687    5.78008748571430    6.31679599043277
H         6.38117238385945    6.05040865647722    7.00903130908436
H         6.70256506710917    2.59893182276536    6.97065175039956
H         4.94036417092586    1.59902931798499    5.13427205139160
H         3.33385652582041    4.13896687804969    3.33651159829454
H         4.72886007601729    3.80857882824518    2.28380451318853
H         3.88243023713128    2.45163950443516    3.08142638582126
H         7.93091556438723    9.16339200021136    1.04069297934834
H         8.36476647242780   10.44669990948707    2.20367031705778
H         6.65138234396151   10.14218891631815    1.79854099230256
Cl        3.94269208930182    6.58539340404942    6.17844122224283
N         1.90824208460896    7.30476206464546    3.81773762613802
C         0.93743509481874    6.24432383374158    3.65318457325378
C         0.98608515504913    5.33524194895893    4.88466379302066
O         0.05899922485764    4.28893426791889    4.70603662457515
C         0.02743413651834    3.40558419605774    5.79655205104442
H        -0.27153673731962    3.92050608462458    6.71795929840340
H        -0.70380593478164    2.63656775956572    5.55515390080772
H         1.00910259452345    2.94235532009686    5.96122062231570
H         0.74626958365511    5.91992110493984    5.78565337391294
H         2.00905707295213    4.92552483027455    5.01375478047652
H         1.12943470929953    5.62807125121886    2.76132462807078
H        -0.07422264417136    6.66224359631200    3.58621999827897
C         1.86904438655387    8.38625645098531    3.08269755457785
N         2.55526123829837    9.51359811759863    3.44174842687817
C         2.27749821275482   10.51384691722876    2.54105234200008
C         1.40931343261875   10.02061826057273    1.63934955186696
N         1.13364641927887    8.70854737906139    1.96969985059480
C         0.53980883362272    7.78752230926857    1.02980377290770
H         0.25359454083486    8.34761724664142    0.14199990184445
H        -0.34498612964202    7.30351716685000    1.44147330723812
H         1.27925251324960    7.03359070761621    0.74985930352185
H         0.95671972352244   10.48510249428975    0.78838639084587
H         2.71826706764351   11.48530940168772    2.62523608659297
C         3.44486554780944    9.60216062649246    4.56683313234870
H         4.32535691178933    8.94546366426498    4.42277827460468
H         2.92993250531755    9.27528177283024    5.47537087763909
H         3.77637798419188   10.63260087634118    4.67818696924834

