88
CSD_code = QUNFIQ | q = 0 | S = 0 | Stoichiometry = C43H39NiO2P3 | MND = 4
Ni        0.78450855935601    3.35323460805650    3.11428015155273
P         0.36511542300607    5.52439807979711    2.75853871998749
P         2.95640828866381    3.39358976622850    2.55179627923695
P         3.41537562099689    9.01138036378734    1.43558754219097
O        -0.85280107220789    1.49488512971933    1.55176100512841
O         0.75413443076036    3.18540984623317    6.04200551027729
C         2.69676159429335    2.47434368544987   -0.05564058089005
H         1.63883824313070    2.47629674138221    0.17669617660804
C         5.40489843467578    2.45550226567230   -0.60549144847099
H         6.46435895993217    2.44034938820407   -0.81809944400184
C         3.08506705791582    6.24409182866663    2.09796449434756
C         4.20837831591423    2.76565232734473    4.97380243017456
H         3.80904899053172    3.70495429043233    5.33217321211814
C         3.14172239392258    2.07634794436056   -1.30354874714792
H         2.43244173952920    1.76828979881179   -2.05772840366190
C        -1.87981502380203    5.51221894364370    4.29496234144696
H        -1.99578602198342    4.54367346688467    3.82029120996211
C         3.99021078907543    2.37212741363067    3.65637549100108
C         4.49771412561114    2.07070362478753   -1.58089641679502
H         4.85113765439702    1.76061966706227   -2.55328401540456
C         2.74640696527908    5.94766997681334    0.64370800467423
H         2.03362353253399    5.12448734435471    0.59403192357343
H         3.63924149484118    5.66937874125512    0.08602438618048
H         2.29774930965546    6.82336194752221    0.17497507948833
C        -0.57430529625801    7.50006424297113    4.61728339620503
H         0.29420707066940    8.10987128072336    4.41777889445946
C        -2.82377026100113    5.97496928674231    5.19006956798091
H        -3.69530144702307    5.37790609529685    5.41548305231547
C         3.59752896157319    2.87236369528586    0.92287116491374
C         2.61526372081312    9.77717449864023    2.90750413168352
C        -2.64460424993661    7.20458684821388    5.80392612632641
H        -3.37709718920448    7.57032383914181    6.50855416935446
C         4.99336825112120    9.94633754547206    1.40860756342083
C         5.14075134039868   11.18994927858501    2.01403055379616
H         4.32888861469742   11.61207911631089    2.58899467434007
C        -0.72646422991556    5.27225278481068    0.20955793154363
H        -0.43244237429620    4.23452706791164    0.30994781911509
C         4.07660075060325    7.41993907942944    2.17012441559492
H         4.97121984454959    7.16588772383183    1.59533214873431
H         4.38411180845767    7.59526281857004    3.20524181192567
C        -0.46740555210371    6.14793434604466    1.25466071226853
C        -1.52039575990100    7.95944613653488    5.51798783592736
H        -1.37328900019868    8.91621126069122    5.99871576939903
C        -0.75048683252804    6.27017045438381    3.99535996501434
C         4.96038067292651    2.85301136925741    0.64112600464154
H         5.67627284148992    3.12964485200506    1.40356907925000
C         5.14367032711526    0.30918289038058    4.11678772295082
H         5.49329382222342   -0.65719830205183    3.78331504271921
C         3.78484737564369    5.04068640279389    2.75121556758914
H         3.86832226026949    5.22241055700845    3.82666626435027
H         4.79758520062223    4.94517959953477    2.34656525959867
C         4.44200592845765    1.12176232831526    3.24500612445848
H         4.23829689206710    0.78133537491224    2.23939524908398
C         0.76221043556885    3.20051760671732    4.89790019845806
C         4.91278874360762    1.95372217824472    5.84223270540938
H         5.08091522175638    2.27437183835405    6.86033657541569
C         1.82233690679437    6.64928954820008    2.86460143406323
H         1.49387603482729    7.62265478263544    2.48632742788772
H         2.06168113149974    6.74550402561269    3.93004293690016
C         5.39041924830337    0.72622912910729    5.41366703317104
H         5.93848905619723    0.09064708508559    6.09344423133226
C         6.32525059921745   11.89342869197253    1.88706831241488
H         6.43068556217193   12.85297931535285    2.37261514713024
C        -0.86527992928740    7.47621400058767    1.14910432199693
H        -0.69849622557023    8.15903953595995    1.97066934986538
C        -0.19620116950149    2.24788655554165    2.11447376564834
C         3.18692517870923    9.82414826631934    4.17467047237131
H         4.18119034966270    9.43125422020251    4.33857858681152
C         1.35122104146573   10.32657552336415    2.71508381836626
H         0.91329236038250   10.29892513181005    1.72578542731272
C        -1.73194281078818    7.04467362865865   -1.04750881101133
H        -2.22179068242859    7.39730336878531   -1.94327474303244
C        -1.35359662661448    5.71754970637287   -0.93989096022482
H        -1.54967482291192    5.03018100283371   -1.74986514939415
C         2.49631940428961   10.39343823862091    5.22881830891999
H         2.94717415668244   10.42492320556148    6.21042748802677
C        -1.49079707906437    7.92031026413022   -0.00029175595692
H        -1.79766679927211    8.95338493278499   -0.08019501313795
C         7.36922806889595   11.37687898321810    1.13933291581869
H         8.29375786272780   11.92699625914604    1.04493990974949
C         6.03329499710614    9.45535525718943    0.62169605853356
H         5.91038889933544    8.51864955772548    0.09432668936625
C         1.23183590083811   10.92536608185022    5.03104089188830
H         0.69657295448279   11.36608011273241    5.85917822108420
C         0.66071755673301   10.89665932197686    3.76990487417876
H        -0.32253197426907   11.31460044902379    3.60958025506841
C         7.21595659857981   10.15842442956084    0.49806542020136
H         8.01815655257586    9.75999810290620   -0.10634926517737

