53
CSD_code = QUNHUE | q = 0 | S = 0 | Stoichiometry = C20H26N4S2Zn | MND = 4
Zn       15.46021735514648    9.68529795143698    2.79918878133622
N        16.40850744483551    8.31400342350530    2.03744037319086
C        17.04855493091335    7.36724629286919    1.74002175190086
S        17.90477704587985    6.09718504478052    1.39485185839729
N        14.14345874865612    8.76799265596524    4.10156003705874
C        14.38233391133610    7.54527653587229    4.56356533057007
H        15.33127447018482    7.10943000060144    4.28528742390004
C        13.48519067346308    6.84252227871878    5.34657343197054
H        13.75616834473584    5.85449291963521    5.67749478769639
C        12.26004372591897    7.41205070938859    5.68296738073019
C        12.02534561542477    8.69581768373709    5.18869348525700
H        11.10162077473534    9.21143491798982    5.39614825874633
C        12.97684841761296    9.32702545324417    4.41426101299216
H        12.80358558608591   10.31738849331165    4.01803459478698
C        11.21389463240040    6.71220599871188    6.52575917362975
C        11.66604757414552    5.32393278227780    6.98434795406735
H        10.88152895829761    4.86961487387837    7.58494328943739
H        12.56299160011889    5.38512409773380    7.59647799291564
H        11.85550702422874    4.67222743411745    6.13483228269158
C         9.93559250963871    6.55898422056879    5.68904689963660
H         9.17380102574096    6.04514249951773    6.27019292047848
H        10.13762715481559    5.97536537422095    4.79355550197229
H         9.53924663896230    7.52396038605233    5.38601848740982
C        10.92624211957848    7.56746214077213    7.76828661246104
H        10.19106244044304    7.06963837258828    8.39570275573127
H        10.53573540826301    8.54473293246625    7.49902155987404
H        11.83506895133529    7.70892292481270    8.34969378370684
N        14.51243694898181   11.05564363349747    2.03530158129502
C        13.87146501558865   12.00177973848085    1.73810550598942
S        13.00662640814790   13.26556441130509    1.39131527471520
N        16.77495515456790   10.60217318976765    4.10397961055910
C        16.53621700209230   11.82464660364125    4.56673011406304
H        15.58709994880980   12.26058060956266    4.28915062833487
C        17.43372379989182   12.52712333392414    5.34959767423312
H        17.16287412136012   13.51499942664008    5.68111113471212
C        18.65917223561221   11.95761351271133    5.68495633708490
C        18.89344066102030   10.67385104121406    5.19046500823213
H        19.81717812057228   10.15806290133662    5.39746206137101
C        17.94159138386058   10.04291997454420    4.41624457938948
H        18.11458652358933    9.05261408821760    4.01976679039650
C        19.70624230705419   12.65751419811640    6.52658262489697
C        19.25500087965845   14.04613737668181    6.98499593221488
H        20.04049453237520   14.50068075062643    7.58414515509496
H        18.35895079901895   13.98549475143428    7.59848409714524
H        19.06440827742296   14.69734801171631    6.13535646428080
C        20.98381571182383   12.81004665429128    5.68861275109057
H        21.74657686699642   13.32317347941631    6.26912548615613
H        20.78128706478268   13.39406582036342    4.79349829793843
H        21.37917528652652   11.84488495023662    5.38490157604090
C        19.99486537706779   11.80273059830145    7.76920418590268
H        20.73110104406662   12.30045459952314    8.39547085562444
H        20.38447488805275   10.82509600013147    7.49997820119664
H        19.08666655812517   11.66212194557240    8.35179034945100

