92
CSD_code = QUNHUD | q = 0 | S = 0 | Stoichiometry = C35H53ClN2Zn | MND = 3
Zn       -1.59109751227451    1.57831167983568    5.48375613844389
Cl       -1.59109677330183   -0.55618338446836    5.48373827189073
N        -1.13218738570000    2.80186906519900    6.89123210237814
C        -1.18744678286469    4.10630084846512    6.70512976671307
C        -1.59110054096336    4.65704915830261    5.48376378441889
H        -1.59109913072394    5.73000626311011    5.48376670113737
C        -0.77857588242535    5.16038823833744    7.75717795116614
C        -1.93874690322671    6.14443662279404    7.98809370315719
H        -2.16818963377455    6.73936759067490    7.10945003986893
H        -1.67782702029987    6.83117226539960    8.79064707257277
H        -2.83796964190362    5.60674986600775    8.28080377595748
C         0.44947424286077    5.90724590190847    7.20813324830428
H         0.24385583729385    6.39988307651032    6.26273144184358
H         1.27102450060198    5.21124412204015    7.05342622399525
H         0.76989247185319    6.66395626471924    7.92138179118762
C        -0.38888898606324    4.62832242441361    9.13919513884198
H         0.43851092078810    3.92963055025070    9.09020528885701
H        -1.22340402159734    4.14385945604482    9.63442106921597
H        -0.07726503796573    5.47038534088493    9.75698944394359
C        -0.85765565723532    2.08738151480613    8.08001688522556
C         0.40591670552087    1.51228538127634    8.26791632305042
C         0.61521650517888    0.71593067394909    9.38502278079966
H         1.58532559046131    0.27151636543221    9.54733789684495
C        -0.40143113891116    0.47060030296051   10.28598449335538
H        -0.22344284387564   -0.15757714938871   11.14597030011908
C        -1.65384641612056    1.01545998457865   10.07442236092493
H        -2.44862197874589    0.79715490602380   10.77042009589393
C        -1.90305425388093    1.82873287928400    8.98024296834839
C        -3.29002836192968    2.37823198004603    8.72586514207777
H        -3.20716926816304    3.23028986460974    8.04276532180167
C        -4.13472852413098    1.30322295616456    8.03616226746366
H        -5.13143304262511    1.68257672749023    7.81933837663745
H        -4.22356607920609    0.42456254351717    8.67088805402188
H        -3.66765035438983    0.99740252151323    7.09705241184638
C        -3.98681166760350    2.86500189984414    9.99773889281584
H        -4.89936494314571    3.39749703161344    9.73635997743455
H        -3.34522827169554    3.53982560948185   10.56116319962459
H        -4.25983481967165    2.03306483618373   10.64147057399320
C         1.52754465642574    1.72317697280154    7.27469994158666
H         1.16235414749229    2.36679865351418    6.46410823607438
C         1.95223498961588    0.38444684012216    6.66463587553784
H         2.67766506598615    0.54616299439163    5.86985502743561
H         1.09229387316231   -0.13673951540845    6.25032347284902
H         2.40568143476491   -0.25588232651285    7.41695112037263
C         2.73369116988805    2.41120357327347    7.91994214197961
H         3.51382390586739    2.56638305135386    7.17724108387406
H         3.14296233500786    1.80199024766183    8.72196100870419
H         2.46013910384793    3.37905846535990    8.33517753795160
N        -2.05001888252106    2.80187894098519    4.07628513960984
C        -1.99475649560560    4.10630823267670    4.26239403035909
C        -2.40362706907625    5.16040145282012    3.21035198497519
C        -1.24345611325934    6.14444958173271    2.97943617896516
H        -1.01400030752671    6.73936631186819    3.85808615765963
H        -1.50438367888883    6.83119816512676    2.17689616354055
H        -0.34423860636724    5.60676429727684    2.68670697637514
C        -3.63167419562560    5.90726068126285    3.75940095884075
H        -3.42605114917718    6.39989549897105    4.70480307719644
H        -4.45322530906139    5.21126025508730    3.91410942872339
H        -3.95209360517010    6.66397359400925    3.04615522247590
C        -2.79331830303526    4.62834225983269    1.82833383062479
H        -3.62071986422180    3.92965259090125    1.87732462555492
H        -1.95880566177465    4.14387698512066    1.33310649844621
H        -3.10494059057651    5.47040649140857    1.21054030911739
C        -2.32455306235731    2.08738911368842    2.88750305750716
C        -3.58812559608303    1.51229152656230    2.69960859786880
C        -3.79742217792995    0.71591684586746    1.58251585185276
H        -4.76752996343878    0.27149710312327    1.42020758151330
C        -2.78077195103720    0.47057052220136    0.68156119489640
H        -2.95875621525090   -0.15762740687450   -0.17841059194924
C        -1.52835982722087    1.01544141879517    0.89311246847523
H        -0.73358337612513    0.79712840446033    0.19711814415920
C        -1.27915540023873    1.82873445248455    1.98727772496433
C         0.10781329427391    2.37825652369710    2.24163628968929
H         0.02494787780636    3.23032123448142    2.92472699038207
C         0.95253938392814    1.30327114893668    2.93134385167574
H         1.94924015992057    1.68264531163506    3.14814964071142
H         1.04138382298496    0.42460294030421    2.29662986296019
H         0.48547791580012    0.99745681637708    3.87046420860038
C         0.80457402937952    2.86502261637979    0.96974822106261
H         1.71711812167125    3.39754261775811    1.23110895499527
H         0.16296965980665    3.53982283412494    0.40631934760540
H         1.07760888869047    2.03308136425911    0.32602688594225
C        -4.70975838479040    1.72320665200048    3.69281469636798
H        -4.34456951848942    2.36684134040617    4.50339653156568
C        -5.13446018331308    0.38449054797516    4.30290113601197
H        -5.85988699132724    0.54622726334291    5.09768075670770
H        -4.27452329753105   -0.13669752199032    4.71722017200612
H        -5.58791494902627   -0.25584658716154    3.55059754353560
C        -5.91589747753230    2.41122662403323    3.04755092409643
H        -6.69603695576473    2.56641930080496    3.79024215260579
H        -6.32516253588749    1.80200188445909    2.24553751559078
H        -5.64234004127526    3.37907463257198    2.63230298359067

