98
CSD_code = QUNHOX | q = 0 | S = 0 | Stoichiometry = C37H58N2Zn | MND = 3
Zn        9.60501935001150   10.92369488578649   14.10742422732541
N        10.09559532333299   12.38264782625136   15.42126552667712
N         9.02050039202619   12.26173974799913   12.70712365213521
C         9.99536810049158   13.67654755201141   15.20844503334924
C         9.51281312822418   14.18407211748848   13.99752148695488
H         9.48836253384809   15.25605427528444   13.95879587326446
C         9.05690594033093   13.56982543274414   12.82572946417096
C         8.56679689842758   14.56747725915645   11.75094904970038
C         7.34240278978072   15.29948206388060   12.32595639150977
H         6.55053762406754   14.58674734322788   12.54626841804804
H         6.96572174432683   16.01862170368744   11.60078280003288
H         7.57793150530300   15.83371141324971   13.24160128061411
C         9.67965062689867   15.57751987628947   11.42242140642787
H         9.93368986878551   16.21293902401146   12.26522008422535
H         9.35537005341587   16.22440323227045   10.60940243698823
H        10.58062949494743   15.05762769805492   11.10350424073406
C         8.13508403237891   13.96008226534800   10.41317828254147
H         7.33970959325824   13.23338624784747   10.53116991010240
H         8.96505484098500   13.48368658890651    9.90264674439790
H         7.76353093534139   14.76028984157404    9.77292330277391
C        10.44262839042126   14.77198739389885   16.20480092002925
C         9.29074322886065   15.75874645968037   16.46212780912096
H         9.00797441535413   16.31696338619534   15.57498082631613
H         9.59196001977138   16.47866378093619   17.22081706973634
H         8.41242992439735   15.23012975962655   16.82654155832122
C        11.63398907943828   15.50863109704440   15.56880988787857
H        11.37131579502048   15.96900003516797   14.62103374956263
H        12.45107429919680   14.81315256860545   15.38938935021637
H        11.98805161421731   16.29008548181406   16.23881284770861
C        10.90275393751976   14.28792191301152   17.58304798116653
H        11.72363032602754   13.58334479504695   17.51724950750070
H        10.09325505241596   13.82442501494070   18.13670812048518
H        11.24804881578992   15.14933016302382   18.15497912690504
C        10.43483209033919   11.70862749492214   16.60491122553785
C         9.43971702952891   11.45829560364477   17.56675297513199
C         9.74081900640460   10.64817150089942   18.64919039522164
H         8.98194686261408   10.43541406832905   19.38622014730224
C        11.00197505046883   10.10311913377502   18.80352042889666
H        11.22163930296963    9.47831668502173   19.65652785719667
C        11.97722872093057   10.35685227995510   17.85927264994874
H        12.95967174780638    9.92680484379611   17.98581364141153
C        11.71301692429063   11.14554507349306   16.74897534222490
C        12.79840422212107   11.38286518419083   15.72112636758074
H        12.37672332483184   11.98442514644322   14.90684980299094
C        13.29033391875948   10.05828936744899   15.13184509478025
H        13.97806008238333   10.24552724596533   14.30959155277436
H        12.45471715174012    9.47200741886478   14.75917802859938
H        13.81115541726272    9.47032888282262   15.88368342158850
C        13.98369439241972   12.14619158492750   16.31956402388072
H        14.74591354458266   12.30510456385140   15.55903668026391
H        14.42902261847997   11.58551637496281   17.13810945492078
H        13.67703222570314   13.11692493991768   16.70211391608252
C         8.05002265343789   12.03327999754399   17.39516753084940
H         8.11414303289957   12.88874586992395   16.71557031781051
C         7.13979768899359   10.99120789593749   16.74155374945914
H         6.13637715363316   11.39159536460225   16.61031448234718
H         7.08113028941262   10.09664952362109   17.35821983874729
H         7.53401076852910   10.71503370736606   15.76109846750378
C         7.43577681406937   12.51991477607428   18.70914302951198
H         8.12695824427225   13.16350555307577   19.24967725070599
H         7.16918290601551   11.68577848524167   19.35316482489960
H         6.52890436616724   13.08609071653189   18.50457861508051
C         8.70140616975283   11.48267726480706   11.58431341173060
C         7.44094738763235   10.87032464736403   11.49301724021189
C         7.20206269476845    9.97797946931109   10.45848500985731
H         6.23366683276265    9.50776032539737   10.37300994400631
C         8.18463797678839    9.67288619652028    9.53734189837147
H         7.98457393368693    8.96911847270168    8.74300875760083
C         9.42740786610914   10.26947833048228    9.63887856332177
H        10.19243668723572   10.01820402135617    8.92036549546679
C         9.70395918794577   11.17979446158462   10.64595577401293
C        11.07524534233672   11.81190573290474   10.75573035288459
H        10.99352070804921   12.70288965465660   11.38629905207042
C        11.64243012412639   12.24281506758908    9.40129529652070
H        12.53496441169423   12.84761169458391    9.55091762315041
H        10.91854607310216   12.83283308088380    8.84285254011716
H        11.92023274970782   11.38219856754397    8.79831446368223
C        12.03947935364320   10.84259262744657   11.44388559153652
H        13.03484955749912   11.27835677451468   11.50572595096033
H        12.10054369177228    9.90813710616714   10.89021521063366
H        11.69266833735602   10.62459726789165   12.45560229269233
C         6.34706666115763   11.16972891530120   12.49587555651167
H         6.73817370695645   11.88351160148626   13.23034429807871
C         5.12194440195240   11.79558256956358   11.82250314889206
H         4.36390780347786   12.02528830107887   12.56903231089684
H         4.68908023274785   11.11203456831275   11.09604493810670
H         5.38186773136677   12.71705861361902   11.30649329068336
C         5.92674454116451    9.90011990920221   13.24093740819358
H         5.19224560716604   10.14049016994685   14.00700000042981
H         6.78476257531446    9.43391672512234   13.71913980092323
H         5.48362250002783    9.18016015801122   12.55718122219387
C         9.68828103175891    8.90052043799074   14.06970289547383
H         8.92126891439943    8.51015736017962   13.39838891313121
H        10.63183171919041    8.57426270652706   13.62816287837405
C         9.54147825252479    8.19732956372976   15.42154813979031
H         9.65013442141666    7.11761476893241   15.29850111987576
H         8.56469541370522    8.38414187012389   15.86177060362697
H        10.29577817402448    8.53345346995854   16.12985952581450

