65
CSD_code = QUNJAL | q = 0 | S = 0 | Stoichiometry = C26H26Cl2F6N2O2Ti | MND = 6
Ti        6.33517487596015    8.59773741883346    7.58730400136162
Cl        5.05155721610511    7.01862271721578    8.46173745838163
Cl        4.74987713288481   10.02034563164670    6.97760818817973
N         7.74614102414172    9.93231049427512    6.75301844550144
N         8.01234475147236    7.43785185095982    8.13732276030427
O         6.30205458571923    7.84469589618363    5.95095186201829
O         6.51434660520914    9.35981370834689    9.21103119433858
C         8.22543212592462   10.76916900748242    7.78302859171034
C         9.40023879704660   10.44480227473364    8.45917763968188
H         9.98558766195164    9.59421848713195    8.13589889337501
C         9.80597303194817   11.20371048076434    9.54354358690372
H        10.71339117860561   10.94271486834218   10.06699010961893
C         9.05116445982802   12.28677436743610    9.96094548997465
H         9.36459666267287   12.86483774976730   10.81588481924170
C         7.88564120595751   12.61557620800734    9.28612447949637
H         7.28872067985277   13.45278337061297    9.61306659450521
C         7.47034826701135   11.86811154355321    8.19988527622644
H         6.54423053656942   12.09400504431634    7.68792401683889
C         7.85887921126637   10.24935498851534    5.50199769783260
C         8.56145086939998   11.51118452454831    5.05167764024107
H         8.94133077132305   12.02560683463186    5.94085661054403
C         9.74932512760530   11.19233301838989    4.14135110739241
H        10.44680467550985   10.52489391929829    4.64235103743488
H        10.27256380059973   12.11262655867475    3.89329527913502
H         9.42784453646560   10.72354730642069    3.21583310069287
C         7.55226823126052   12.42848332925871    4.35523345632107
H         8.01550695439574   13.38879731325668    4.14192957253933
H         6.68638847860116   12.59220187073280    4.99193883243464
H         7.21014814833285   11.99480660523264    3.41974746416556
C         7.32185898795252    9.39609929695973    4.49008949594899
H         7.47684796003044    9.65009678810399    3.45509632199744
C         6.60276046042191    8.27586996432116    4.78867369628736
C         6.10689942781163    7.40832901556944    3.62762226126024
C         8.37963455459449    6.63998520021596    7.03273769424477
C         7.68383067746957    5.45914941423449    6.76255925153579
H         6.89910819578023    5.14535144591299    7.43832449740023
C         7.96972557477813    4.73946989528769    5.61738430069331
H         7.41703054625094    3.83712051363809    5.40629988455551
C         8.94894688710601    5.17676551631864    4.73884543594861
H         9.16073103072291    4.61835667104519    3.84074490245755
C         9.64520510935108    6.34253895629770    5.00909115312349
H        10.40643703721110    6.68840021852519    4.32620258523246
C         9.36616404125519    7.07546523638849    6.14989809732029
H         9.90393965622107    7.99094567492158    6.35834787767100
C         8.40103263719962    7.16217491936237    9.34189934589568
C         9.32662432536305    6.00388181511407    9.64353323498055
H         9.57158927070458    5.50804527999163    8.69817223917278
C         8.60671611412543    4.99727475897633   10.54486892373755
H         9.21913217181235    4.10638933519910   10.66160054145183
H         7.65380087673788    4.71059101414573   10.10697638818221
H         8.41783414685320    5.41690749544282   11.52892344385548
C        10.63094191940997    6.49209292948397   10.27799788984918
H        11.12719197834954    7.20902177783633    9.62778779771581
H        11.29837719807751    5.64731609214331   10.43005007897711
H        10.45355692025285    6.96435730469001   11.23991448892041
C         7.97227494844428    7.96676701229545   10.44146636150029
H         8.35460312320084    7.75381672173120   11.42545987542325
C         7.08185235746407    8.98947537700995   10.29177390006744
C         6.71413910729798    9.81257468570071   11.53042021445006
F         7.12803687072571    6.98363349223544    2.85573065197618
F         5.46824197795416    6.32536092138065    4.05868365932777
F         5.28074947653155    8.07193827745916    2.80648570652179
F         5.97102183323873   10.87001740978453   11.21573200704875
F         6.03866187037436    9.09672638817218   12.43961591556254
F         7.81006912531016   10.27467579554465   12.16473467330915

