71
CSD_code = QUNJIT | q = 0 | S = 0 | Stoichiometry = C28H30Cl2F6N2O2Ti | MND = 6
Ti        3.29417585407010    4.96702010923931    8.98477533970481
Cl        1.33028100041708    4.12878427226260    9.58597027173609
Cl        3.67612907593552    6.21602897589025   10.77794711887648
F         5.54096389077440    0.61170418039781   10.22561929132796
F         4.93154037132407    2.11091238798700   11.64645602601921
F         3.55212233625411    0.57311088609640   11.02623999548516
F         2.02337469914794    9.61953962728651    8.47384471919907
F         1.94546192566636    9.09595691547483    6.39579749941881
F         0.67390824555949    8.07625923764209    7.80315893664231
N         5.13848803826222    5.75794929452056    8.16565771741344
N         3.16507662016871    3.73228740145432    7.20948974614045
O         2.53211814402099    6.36172512319856    8.17858828552405
O         4.11386869200858    3.55769853009208    9.70423521948851
C         5.38184219513996    6.98013305368760    7.81613087372652
C         6.75805616786842    7.60425921015992    7.56154602249120
C         7.88615734775628    6.59915709370587    7.30531739669622
H         7.63771084292591    5.93141919519916    6.48401689476005
H         8.12013501373939    6.00697538640332    8.18307008504980
H         8.78644051342510    7.14670909952574    7.03241959767988
C         6.69657971647587    8.52891234161652    6.33097967696824
H         7.70721136442789    8.78230122571731    6.01987421290263
H         6.18275944096202    9.46223851716053    6.53734122387246
H         6.19902223351637    8.03339792718377    5.50061852057033
C         7.09403062807625    8.42836991946457    8.81446283699194
H         7.19476392132001    7.78071378304062    9.68151510080454
H         6.31546351397010    9.15673821087137    9.02500082793936
H         8.03348168621776    8.95525804383692    8.66306380433397
C         4.27303290564470    7.88081451482992    7.66787584751667
H         4.46185095454187    8.90642499114121    7.40574937907304
C         2.97498590922948    7.51486109362294    7.85761089052010
C         1.89419424674137    8.57801536927487    7.64031872820862
C         2.63877399337053    4.60735785580455    6.24491107503295
C         3.47915366471870    5.36271813533630    5.42640330127165
H         4.54776873369780    5.19428560745740    5.45256211575118
C         2.94761979410308    6.32513371563312    4.58564626236386
H         3.60618784003659    6.90563319662295    3.95688732328036
C         1.58239232921258    6.55173508374584    4.55228102508406
H         1.17655487966796    7.31384364420746    3.90617839065105
C         0.74328283329016    5.80880085533276    5.36871196854407
H        -0.32033252968157    5.99096351964742    5.36012962242133
C         1.25917513836696    4.84199911148971    6.21054625200798
H         0.61508645566112    4.28762762893507    6.88065394684091
C         3.19475140343743    2.43973184377684    7.14737719201287
C         2.77112729852511    1.57020409337509    5.95872700646287
C         3.74970639808244    0.39231661209911    5.79106202749731
H         3.60745716701404   -0.37605605109288    6.54418122770961
H         4.78017074238380    0.73701497637906    5.83445266923791
H         3.58798272728889   -0.07556548417386    4.82292320830007
C         1.37028584276732    1.03587219665872    6.29642479582388
H         0.65474121928663    1.85165389572188    6.35778387210336
H         1.37011757605833    0.51305705282689    7.24923090558947
H         1.04617179761775    0.34689248387275    5.51967754211740
C         2.71956205846474    2.29992365318642    4.61201056297259
H         2.51798406158335    1.57248771781255    3.82782304090330
H         3.66983157720392    2.77897644739137    4.38912356699271
H         1.93180445699021    3.04415037346856    4.57418159204485
C         3.63802484197503    1.71135765645417    8.30299638933072
H         3.64061639794239    0.63643419699753    8.27650649870685
C         4.04718194357091    2.30732549658736    9.45728524475881
C         4.51516477583819    1.40287790432676   10.60126617131383
C         6.08469946812109    4.77266167881417    8.49209940974116
C         6.36540780410084    3.72760072023751    7.61132536849097
H         5.93642514126991    3.73267739767315    6.61786052266120
C         7.18784556617232    2.68748230236752    8.00795844679312
H         7.39802079145366    1.88231958637782    7.31978958347012
C         7.73411144982293    2.67012221845833    9.27981477081591
H         8.36127496918974    1.84858233709914    9.58750575592762
C         7.45337130773803    3.70289940569413   10.16138236763862
H         7.86272460394840    3.68823283244104   11.15976701811619
C         6.63698377598538    4.74989308197789    9.77820554239710
H         6.38046220808396    5.53799910102350   10.47415432972760

