71
CSD_code = QUNJOZ | q = 0 | S = 0 | Stoichiometry = C28H30Cl2F6N2O2Ti | MND = 6
Ti        1.92518956340530    9.89763509356250    6.09325015845063
Cl        0.08975686121890   10.84364183177687    7.05114085140499
F         2.58355412148666    5.63925988223356    6.87584568732809
F         0.65478396262000    5.96219021327415    7.77866392679914
F         0.81422899512928    4.86387270713483    5.94052203388703
N         0.92496906168147    9.53441359775974    4.27419770084511
O         1.31550213692156    8.28590957815505    6.56985061617777
C         1.16208667543814    7.23906342514274    5.84553226975183
C         1.30162906274800    5.92103399344044    6.60866383143452
C         0.87140608740586    7.20267539516850    4.51798345391217
H         0.76686522006801    6.24061464880930    4.05109383260753
C         0.65431161005693    8.38913677890091    3.73475011828028
C         0.15554836784132    8.13947454717314    2.30570521779053
C         1.40775710966828    7.83379459805878    1.46754890237330
H         2.04379256186332    8.71167625470981    1.39265266873098
H         1.10875322870764    7.53600509065352    0.46504377874477
H         1.98796423587579    7.02921846315701    1.91288858633615
C        -0.61006260924799    9.30736574574783    1.67216002136885
H        -1.42585562611154    9.63045290965614    2.31384450248830
H        -1.03560459144755    8.97360279721226    0.72753697898152
H         0.02779512268112   10.15693007970165    1.45619576314371
C        -0.78986721384961    6.92333962550405    2.27198812889954
H        -0.25945489264215    5.98055896365622    2.36486536132715
H        -1.31161758346102    6.90127797052439    1.31825356981014
H        -1.53339674570438    6.98862687655265    3.06259437757822
C         0.83576978736698   10.77872774400079    3.61699726613448
C        -0.26325072331065   11.61118054418624    3.82170044766332
H        -1.06136417764524   11.29013084431570    4.47759474119608
C        -0.32072006143886   12.83661761287233    3.18184529698255
H        -1.17426686855453   13.47730162173868    3.33940015569537
C         0.71223165397140   13.24562396799917    2.35480914331595
H         0.66114367517763   14.20240943589383    1.85882125107883
C         1.82585759008511   12.43754380304887    2.18775938476236
H         2.64790665263773   12.76751513153953    1.57121933480356
C         1.89795074153487   11.20891094364869    2.81813340825180
H         2.77457668102115   10.58033730009637    2.71869847177188
Cl        3.76047816212305    8.95161461912538    5.13512587704776
F         1.26509349248112   14.15519112432582    5.31144219571360
F         3.19423670392402   13.83403283685278    4.40879189747246
F         3.03369038295958   14.93167960264371    6.24723652543476
N         2.92562115168173   10.26057444204959    7.91227706777264
O         2.53492007310880   11.50942887775100    5.61689300025043
C         2.68763956489204   12.55619906149623    6.34148111838514
C         2.54719460447457   13.87433941223621    5.57871782217079
C         2.97833713025994   12.59239089153710    7.66902586422727
H         3.08234355030801   13.55436983912012    8.13620560299502
C         3.19615789653816   11.40580757182409    8.45187725828602
C         3.69558431827481   11.65529494295100    9.88072172818106
C         2.44379290078359   11.96045533309170   10.71968361735783
H         1.80808161247683   11.08236200258484   10.79484084069592
H         2.74331782276611   12.25818284656004   11.72205189769996
H         1.86306550740724   12.76492301757653   10.27482785861849
C         4.46189531583513   10.48747639689050   10.51355456047493
H         5.27738625949372   10.16475091878943    9.87130407449552
H         4.88792076026990   10.82115342068452   11.45798920073432
H         3.82440151719814    9.63769058030764   10.72972283489438
C         4.64068550341478   12.87168475541849    9.91413677020162
H         4.10996767456867   13.81433764401875    9.82171711577591
H         5.16295918522493   12.89371444077027   10.86758539971246
H         5.38379224387573   12.80674418459433    9.12310420675039
C         3.01530825033630    9.01616820422343    8.56923803671592
C         4.11432295903805    8.18386004416247    8.36391182178298
H         4.91212113916869    8.50508820465950    7.70772224042291
C         4.17220562543227    6.95833167629161    9.00355214590956
H         5.02573938787500    6.31775252004738    8.84550185151018
C         3.13969174693585    6.54910806796111    9.83102877373432
H         3.19111621445406    5.59225805668305   10.32685686300076
C         2.02606910477436    7.35705648176445    9.99872592779210
H         1.20434632230334    7.02692638550488   10.61561633405578
C         1.95354892204087    8.58576039350511    9.36853676881037
H         1.07689732010174    9.21422118498620    9.46844366080460

