33
CSD_code = QUNKIT | q = 0 | S = 0 | Stoichiometry = C9H18FeO3P2 | MND = 5
Fe        1.93130182078087    7.98042794141252    6.58399708332279
P         3.65173638456230    7.97814174399134    7.85449812355269
P         0.26277897691849    7.97813955055132    5.24583682568722
O         2.81006179988836    5.43085838501979    5.44815501685885
O         0.14442902979999    7.97012262201887    8.90541977947548
C         2.46155980560059    6.43951228384488    5.89710615480330
C         0.84987078242453    7.97474631602705    7.98882219106367
C        -0.90479844358876    6.57079504134982    5.35054004690748
H        -1.32155169011846    6.53674315015844    6.35811332459225
H        -0.35602744123046    5.64610029629705    5.16709511410820
H        -1.70627960776385    6.68093511324278    4.61817361550883
C         5.29425613824978    7.97468822224547    7.04391003785147
H         6.09109254088646    7.97401644685925    7.78949091667653
H         5.37154969744940    7.08748948779786    6.41394959222449
C         3.84916165614013    6.57075914252869    9.00992550603983
H         2.98110030992587    6.53592389254742    9.66968751859417
H         4.76152761250733    6.68156404574950    9.59828528464713
H         3.88743838278699    5.64617233363043    8.43239803474870
C         0.62598275010123    7.97493239346725    3.45055061346684
H        -0.29862521589923    7.97433958408436    2.87095686169876
H         1.21599905897730    8.86079839910852    3.21163236762894
H         5.37442950366877    8.86053031288129    6.41238507713869
C         3.85492113825297    9.38539043588719    9.00911059389142
H         2.98631630164081    9.42520278665326    9.66786861891849
H         4.76605222505026    9.27029544863424    9.59856687788061
H         3.89868480389382   10.30935647385162    8.43098702820683
C        -0.90568432946309    9.38513895964690    5.34522162194633
H        -1.32139142019393    9.42368057216765    6.35306624103875
H        -0.35782740331777   10.30936196414435    5.15674923436381
H        -1.70784738158876    9.27090426810074    4.61422189507340
H         1.21521058722571    7.08776034332997    3.21458630969253
C         2.45355365473677    9.52885571828169    5.90718378304788
O         2.79621797169637   10.54251632448904    5.46530870934417

