49
CSD_code = QUNKER | q = 1 | S = 0 | Stoichiometry = C17H27IrN3O(1+) | MND = 6
Ir        1.83401497592952    4.30071272204976    2.78321244222120
O         1.33347958242314    8.72873750946229    1.22747957331527
H         0.62711453687909    9.03281113269057    1.80788335823213
N         3.72397784915291    4.89127249142849    5.13537494897323
N         3.83514024823745    6.47239797867025    3.68627439688024
N         3.27454849871257    3.47261783153203    1.83890208016841
C         0.16012448048444    4.71270405470247    4.10948861538253
H         0.53550431018718    4.87721026410267    5.11816473113532
C         0.30430629442937    5.76010790199188    3.20971437192567
H         0.75741904150636    6.67720975130327    3.58358003023339
C        -0.52099175517166    5.97903849786472    1.96691106052991
H        -1.47534509157364    6.43524620295845    2.24729348877473
H         0.00823538253804    6.69690330829983    1.33702237061111
C        -0.77683299878311    4.69820207510598    1.15238507377832
H        -1.67819443866921    4.19392305129571    1.49967643386643
H        -0.94647354376094    4.98175510994799    0.11315639392904
C         0.38459599281242    3.73745526846892    1.21340514617654
H         0.95202265721809    3.65214828146005    0.28991856165120
C         0.48738800089016    2.70991810480003    2.12609550612773
H         1.09847798749442    1.84949998978314    1.85804538803870
C        -0.50056358155958    2.41957461906145    3.22676201814786
H        -0.04302067634153    1.70202137579469    3.91064784385313
H        -1.38101747491336    1.93274303782123    2.79709931888567
C        -0.93028734502185    3.66721144781853    4.02081040454540
H        -1.20284106069443    3.35606724628990    5.02999873789040
H        -1.81718394038529    4.11673046976490    3.57502341048290
C         3.21727119302884    5.30286758207490    3.95518304459604
C         4.64234306144750    5.79178232129553    5.60085006318136
H         5.16328131251405    5.65702070045577    6.52580362468273
C         4.71378377955004    6.78757269186877    4.68651415301758
H         5.31351878564497    7.67303321843467    4.67209614083821
C         3.36987548269064    3.67580693671942    5.81700706953083
H         2.86910018662221    3.89836061378069    6.76040889998512
H         4.26386428715157    3.08825350479571    6.02710070069425
H         2.70052543966849    3.09936864247301    5.17895470841850
C         3.61298294676896    7.27630385345491    2.50969841870129
H         2.83924052537721    6.78126363809530    1.91447618221476
H         4.53397258138336    7.31709078774329    1.92044748048110
C         3.15558068309901    8.69828815423073    2.84561760771995
H         2.40781669796959    8.66343520016580    3.64212624585415
H         3.99192468208089    9.30547685808725    3.19063187028598
C         2.53844478488725    9.35218015055700    1.60252027421278
H         2.38857445398411   10.42234715692690    1.78113653047476
H         3.21320779981697    9.23655671849831    0.75112884026480
C         4.01628466144512    2.90806686766890    1.15558433387634
C         4.94624359545156    2.21629766573130    0.32427685350372
H         4.66958087641350    2.34097792407706   -0.72299180634598
H         4.93774645331819    1.15359994704041    0.56809139098306
H         5.95183779766769    2.60862914136358    0.47721166710167

