32
CSD_code = QUNKIU | q = 0 | S = 0 | Stoichiometry = C14H11Cl3N3V | MND = 6
V         2.06118225181285   10.38113465429650    1.98764096830484
Cl        0.16802641481540    9.94453353759213    0.73200854121888
Cl        2.06659188153039    8.67263530045228    3.06627767523313
Cl        3.95861188390099   11.49657840601949    2.61194038801680
N         1.93848520919876   12.07391982423963    0.82694214361627
N         1.08114797199835   11.43965513152973    3.22091435417678
N         3.16436087242678    9.56110465704623    0.59206952182461
C         1.38161286109932   13.06711117877865    1.53994215395325
C         1.22826329469736   14.38294791230613    1.04278191259439
C         1.68072669100560   14.63363129047953   -0.25901043875774
H         1.58943404108167   15.62444042967584   -0.67966667275492
C         2.22939391380832   13.59832853094786   -0.98166992529228
H         2.58009723891782   13.75022647433567   -1.99040820924999
C         2.33691645074906   12.33334178235193   -0.39805379749217
H         2.76406324286618   11.50654325155177   -0.95366661381680
C         0.91634458356587   12.72923356669895    2.83755652918853
C         0.29263969002709   13.71422910688710    3.63442449088333
C        -0.18768311174662   13.32714533994457    4.89221053309068
H        -0.66632735931911   14.04601461674370    5.53887926026221
C        -0.03630745982492   12.00615910987286    5.26482910769659
H        -0.40006421925982   11.65790810814646    6.21916145403061
C         0.59087013795780   11.10542640519578    4.41326616157662
H         0.70651131109694   10.07001765108179    4.71111329854263
C         0.62399705812846   15.36165449204307    1.88155163492701
H         0.52379345121419   16.36761697110091    1.50111560322415
C         0.17705176729627   15.03928600347884    3.11986047757373
H        -0.28789313496600   15.78413030238393    3.74906027407719
C         3.83436095677156    8.84291295135970   -0.00146953014408
C         4.66817536183045    7.95262745953037   -0.75202242234179
H         5.48111330813536    7.59254169998356   -0.12131080831342
H         5.08579031631450    8.48180111374181   -1.60824809035778
H         4.07721312287346    7.10686274021120   -1.10391997548442

