100
CSD_code = QUNXAY | q = 0 | S = 0 | Stoichiometry = C36H46F6N3O6RhS2 | MND = 6
Rh        5.64381005929843   11.96943708707193    4.31364977397706
S         3.11749142254937   13.13271316236846    6.04201735278885
S         5.81868399394114    9.92541537445348    1.49547084412179
C         6.53851138291681    9.53780232569490    5.30260765358230
N         5.55699148877855   10.35163861750688    5.52952594965334
C         6.65812267359049    8.16760504348943    5.87952269601568
C         7.26277814358623   12.93284519384324    2.26959547473162
N         6.22462365701208   13.33527206319764    2.92647103000142
C         7.78366273455235   13.56901910441753    1.02992607831016
C         6.55607271195359   13.05184701318416    5.79024491211579
O         3.82746480089855   12.82120651174226    4.78979432227751
O         3.86478303106824   12.89058064879869    7.24173950777165
O         1.73944217321535   12.76014690918665    6.03015587019435
C         3.09480095696559   15.00430811028265    5.90105434316232
F         4.34653034971118   15.45825446936395    5.74837433560330
F         2.58450853811660   15.60168933078747    6.97821033977093
F         2.39260912230934   15.40463801667472    4.84139215941891
O         4.97664872862875   10.52838675028447    2.52270847331240
O         6.65702905322506    8.85983338678277    1.97553121928398
O         6.45056221374691   10.87594406360203    0.61681231055121
C         4.56077680320029    9.05944754416784    0.41932087677855
F         3.56832473000808    9.87518500712800    0.05992131685045
F         4.01707473056232    8.02230568929778    1.05847367992130
F         5.13178638477873    8.59719480467078   -0.69377786539426
N         7.21567329563272   11.17213938279092    3.79156170053808
C         7.53349262171896    9.98561812037560    4.32898701100394
C         8.67044290237093    9.31321033404949    3.89236704741668
C         9.42173351190285    9.87333502693636    2.86969066377154
C         9.02426551749578   11.06273554256359    2.27734983520040
C         7.88986688216490   11.70394151157710    2.76387888633461
C         4.57998101668937   10.11625900552226    6.51952925087164
C         3.24515930085509    9.89726070044095    6.13502569983312
C         2.28176941492076    9.76229916218954    7.12227093421572
C         2.61471288797117    9.83922708457920    8.45981569302874
C         3.92854316674135   10.03914757735012    8.82741153170616
C         4.93195912493160   10.18232708002316    7.88047181052564
C         2.89073133684146    9.68582094591555    4.68394954598931
C         3.19942981478345    8.23179799767056    4.29836348606163
C         1.43527915603523   10.01573080225824    4.35855637010475
C         6.32974484915986   10.48914661242602    8.37044452540639
C         6.89566967690187    9.34275724247170    9.21621094043046
C         6.30946679220964   11.78100395540690    9.19944865589984
C         5.59072013151410   14.57453904405215    2.67952752548963
C         6.23506511934699   15.77572065424511    3.03268732964253
C         5.54147055438486   16.96703820645974    2.86833899658289
C         4.25785862652326   16.99024664156254    2.36241106507715
C         3.64645359679098   15.80805830984273    1.99590464374247
C         4.29100139564120   14.58929331862235    2.14866560373042
C         7.63531041169955   15.84233389746089    3.60559568678831
C         8.58076451893781   16.59351843812955    2.66052993517008
C         7.63330039810050   16.54349188307660    4.97038885892683
C         3.64207961884078   13.32450391457620    1.64617177181768
C         2.15112061746548   13.24559309041176    1.97252639559308
C         3.87258562850347   13.21698980769765    0.13295662333236
H         7.57523965028298    8.07228842739738    6.45859140345218
H         5.80268950986319    7.93928788491419    6.50982204785685
H         6.70411558768371    7.45343237182667    5.05710830607312
H         8.83864133079134   13.81721053454230    1.12629978402630
H         7.67153765579344   12.82964519071935    0.23517007809212
H         7.21004947118054   14.45674637120854    0.77877125402497
H         5.95186707131147   12.95341373289577    6.68573967358099
H         7.57481920055527   12.71230135749249    5.99090219369006
H         6.57607243308751   14.10003217800239    5.51123917658581
H         8.94229599610508    8.36027719594370    4.31415507364347
H        10.29822963796888    9.36025486119586    2.50656915534941
H         9.56492631650749   11.46918268525601    1.43930157224225
H         1.25458922816414    9.60460211266130    6.84282950397308
H         1.84908975046446    9.74545813818405    9.21476755324445
H         4.18112926327054   10.10803905447444    9.87340980440161
H         3.51867956630048   10.33985099180351    4.07119800484796
H         4.27024033374700    8.04667604445004    4.27967437730372
H         2.73175300372716    7.54479813524561    5.00282785309980
H         2.81314211876575    8.02414179563225    3.30479932508861
H         1.16871803368996   10.98248063985312    4.77734423655997
H         1.31234279152929   10.05671901860365    3.27874321525271
H         0.75870143187331    9.25417105044595    4.74208640248856
H         6.99095845191004   10.64318485752732    7.51304750844003
H         6.90125831232857    8.40321509401229    8.67052025465644
H         7.91515828315295    9.57526113611526    9.51662961624122
H         6.30212758168502    9.20215743105425   10.11551740332686
H         5.62741998494908   12.49972739232316    8.75455514882609
H         5.97024936114675   11.58228254299692   10.21260531997105
H         7.30585700862758   12.21362336604832    9.25421736078286
H         6.01577499921499   17.89450662741504    3.14711379475654
H         3.73724114109529   17.92884887444081    2.24886373134608
H         2.64994671098625   15.83285277234463    1.58806693956969
H         8.02224901600879   14.82768216927222    3.74158601341814
H         8.60147301436687   16.14472335648693    1.67192976932950
H         8.26826692841160   17.62869444151837    2.55165274235985
H         9.59027720402357   16.58506873681350    3.06580383960591
H         6.82624690469309   16.17880276101206    5.59896391161419
H         8.57976236126337   16.37232737149091    5.47850718365743
H         7.50421575234871   17.61588429892789    4.85217374384501
H         4.12083522850821   12.46484580445326    2.12228437074872
H         1.99076347963897   13.39297106683246    3.03754681692480
H         1.57326091041845   13.98104550726028    1.41762512632862
H         1.78376022013751   12.25821317054306    1.70367004675848
H         4.92338673845780   13.04156319048887   -0.08553569850585
H         3.30518551455352   12.38129883739747   -0.26640281781871
H         3.55171373769185   14.12870790185150   -0.36927280009616

