71
CSD_code = QUPBOS | q = 0 | S = 0 | Stoichiometry = C30H35N5Zr | MND = 5
Zr        0.94997703175516    3.58453235417518    5.38893691780591
N         0.55254536815720    4.64950931665427    7.10274033435458
N         0.99836686906637    1.61339190379407    5.90934729074417
N         3.26659826676842    3.48809418973672    6.24969522491862
N        -0.90555792372809    4.00467264776713    4.52117675968601
N         2.02200672939356    4.22337285477914    3.66731226817629
C        -1.25576047586524    5.32469607077631    4.34526405215725
C        -0.41358093708426    6.41491058686784    4.11528223045001
C        -0.98973910946688    7.66208559463168    3.96856290504574
C        -2.37240682772361    7.84105605640388    4.04500206983601
C        -3.21796242834998    6.77133761728520    4.26033995272139
C        -2.66781512016842    5.50450922527918    4.41095508054057
C        -3.21040457617966    4.19867597803902    4.65255926648649
C        -4.49346086361546    3.69419564472710    4.82063589077030
C        -4.65046460794153    2.34160646537211    5.04750012530045
C        -3.54751414776021    1.48736183870109    5.10154113877510
C        -2.26137758120021    1.96109787282176    4.93658771542335
C        -2.08549327366381    3.32767422789193    4.71831767128483
C         1.99035158842318    3.31754093611323    2.62943365606349
C         0.98061671733238    2.40005831671830    2.32117253554174
C         1.15815565058203    1.58902570694925    1.21693556775487
C         2.30516002705637    1.67155906392314    0.42383564484413
C         3.29852456915894    2.58749322610666    0.70237328644363
C         3.14547638318864    3.42293834458098    1.80244228353661
C         3.92796958380311    4.48116456623392    2.37065047579555
C         5.14318111817045    5.06961693577016    2.04754061276515
C         5.60881675898659    6.10852154452144    2.82847514237286
C         4.86683664743485    6.57849205642803    3.91247585554569
C         3.65663743995103    6.01027978332726    4.25834674630046
C         3.18210764865481    4.93831670740838    3.49785174162124
C         0.99039252519529    6.02333212922316    7.25256912522361
C        -0.81624365098128    4.54938339121702    7.58257008145484
C         1.33733553658127    0.49537640424428    5.05487980976933
C         0.50839135500035    1.13282622219867    7.18495864095568
C         4.16137607773997    2.55048645193514    5.56675928905884
C         3.29598509307387    3.24712192281596    7.69499093812066
H         3.63907124375450    4.42901766998876    6.08213929181304
H         0.66188694548964    6.27370667757980    4.02876437758796
H        -0.35923142227582    8.52152703667945    3.78736461678640
H        -2.78173773844421    8.83375318779077    3.92660560060115
H        -4.28778064168637    6.91356899437492    4.31128515279965
H        -5.35104825290991    4.34958815228064    4.77217589318229
H        -5.64079636904652    1.93103606524936    5.18046282090373
H        -3.71024539622698    0.43217407308283    5.27212614549509
H        -1.40125951485546    1.30067741612139    4.96131658299481
H         0.06819779569693    2.35813197936791    2.91587735536805
H         0.38988091532507    0.87641908474787    0.95281992101838
H         2.40348742903418    1.01623389578497   -0.42898843129004
H         4.17484524238048    2.66320142955693    0.07509368281723
H         5.70911723763737    4.72200569196933    1.19562284530975
H         6.55135680695143    6.57939897425149    2.59176876472495
H         5.24571187747564    7.41201079931184    4.48728138150037
H         3.06484559724136    6.41621370540607    5.07337798526699
H         0.37120156542359    6.73466173400240    6.66943194606360
H         2.03742541096107    6.13185177879864    6.94786739529879
H         0.92055396546744    6.34071702879817    8.30954308082269
H        -0.85831108320595    4.73096897264883    8.67247509320634
H        -1.22444669374702    3.55111789845162    7.38704205027577
H        -1.48257958943184    5.29846884996663    7.11182523837772
H         2.05173936145778   -0.18856390511598    5.55554732455403
H         1.79382713892930    0.84417137664523    4.12219218832682
H         0.45724113698053   -0.12596865353450    4.79549463359748
H        -0.45535829234456    0.59472817998527    7.09479803074320
H         0.37565758098084    1.96973738977601    7.87704701827135
H         1.21972999252497    0.41483291757310    7.63930868773711
H         5.18176759364978    2.59478508641348    5.97484945166953
H         4.21026503334361    2.77812310521182    4.50134721953291
H         3.78054138120937    1.53711791403476    5.69583783573166
H         2.99576256220291    2.21616707534569    7.88426643586511
H         2.58511439447464    3.91224565012200    8.18792279568104
H         4.30093932380154    3.39965861191950    8.11469125969000

