56
CSD_code = QUPHAK | q = 1 | S = 0 | Stoichiometry = C26H20BrN8Pd(1+) | MND = 4
Pd        0.72609258370742    2.87144619930513    4.20006539768254
Br       -1.04297943878598    3.65344283598574    5.59887260955994
N         3.37143717678358    3.28419617450746    3.35407130026819
N         2.99287680654467    1.26867586419912    2.68914215954948
N         1.76872833437952    4.68750250038093    4.21404939307951
N         1.02138550483316    0.32433245082203    1.98308984609476
N        -1.33703465772397    0.74129178935492    3.77523024488526
N         0.34669070558399    0.04689721063046    4.92376706652836
N        -3.48002854377841    1.11164161870081    3.03650781779400
N         2.30110878190964   -1.10754260151385    5.33907505995245
C         2.40036237913835    2.34100958492509    3.23978135272164
C         4.56509193300653    2.79558119663927    2.87163140492010
C         4.32650297011018    1.53089620961063    2.46232470245612
C         3.04783867119438    4.55754228644635    3.83033052755672
C         1.34546371717810    5.87604030451435    4.63728346777865
C         2.18094716389731    6.97874314815527    4.70315577574529
C         3.50702349704627    6.84110997756455    4.32236877473491
C         3.95355304565953    5.60846604971879    3.87395960363664
C         2.29193683730918    0.11112672805897    2.29888843303538
C         0.30415252604549   -0.70922818322153    1.57314504649162
C         0.81416574050247   -1.99546649688255    1.48163775947883
C         2.13667611824345   -2.20895009463299    1.83751255156204
C         2.90529389823571   -1.13290387757390    2.25166024617560
C        -0.14096628379862    1.11304869732911    4.25723987219670
C        -1.59675220416667   -0.56575308184232    4.12616130889532
C        -0.53324394390568   -1.00913702075853    4.82745901210019
C        -2.23005260977627    1.54248861670263    3.03436000591251
C        -4.39651780331919    1.82591778101259    2.41005399201343
C        -4.10474437201026    3.00875091950376    1.74734559624784
C        -2.78423012997270    3.43150135520096    1.70912787682375
C        -1.81003637816829    2.68497402330616    2.35484708040716
C         1.61650059933768    0.00779499852103    5.52828807745591
C         3.52254615284391   -1.18787027351824    5.83936182517409
C         4.12548477991588   -0.14863656763561    6.53077568478241
C         3.39161800202273    1.00860293151283    6.75269291371843
C         2.10117455151825    1.10226642759351    6.25136872053339
H         5.47333193075141    3.36006813709301    2.85523048569128
H         4.98549319408812    0.82182160952702    2.00675970960910
H         0.30732910111361    5.94306157693391    4.94047871951235
H         1.79501937512131    7.92243598595030    5.05047443905824
H         4.18580441261558    7.67782872098796    4.36805863741419
H         4.97620682144004    5.47074076590682    3.56473611896862
H        -0.71702380321246   -0.48706872646169    1.29610633536883
H         0.19189715755311   -2.80612005733228    1.14087499648954
H         2.56818842462545   -3.19636563881340    1.79116037958552
H         3.93501311781997   -1.26141746877784    2.54241959012805
H        -2.51726768916994   -1.03676117475505    3.85161724850226
H        -0.32152474775817   -1.95535380909398    5.27891806707179
H        -5.40066430599834    1.42892608821776    2.45088583461580
H        -4.88423240974846    3.57582625377544    1.26608101192834
H        -2.51320613169166    4.33205540450272    1.17902510589310
H        -0.75119949693246    2.97402645537971    2.29994543001616
H         4.02994466737832   -2.12707904243392    5.66983749098421
H         5.12915798238194   -0.25124823605912    6.90958012395599
H         3.80988271868576    1.82116818387095    7.32805638132300
H         1.46668356938378    1.95895528899138    6.49452138590484

