51
CSD_code = QUPKER | q = 0 | S = 0 | Stoichiometry = C17H26BFeO5P | MND = 8
Fe        5.44151518762106    6.16205503525907    6.58412182665088
P         6.73728450188634    4.48458543410661    6.71134170714995
O         6.75988483035964    7.13036980253199    4.22067288657817
O         4.77670090123061    4.32026169631222    4.47624381529177
O         6.97728208710834    3.68633013653934    5.41276723285054
O         6.28835213584653    3.44464102163945    7.85799038935996
O         8.25251306754595    4.76852082250398    7.21524565839006
C         4.76194867170592    6.03684297594206    8.65257061391714
C         3.68147469043978    6.59122390691082    7.93905712903034
C         4.11954607485183    7.79041647204254    7.34775144191904
C         5.46447789734043    8.01685892619650    7.75913743500988
C         5.85976849099373    6.94303711489736    8.57037726482043
C         6.25081442118598    6.76053572058809    5.18238370510685
C         4.50845549758152    5.22002376869205    5.30004686376523
C         5.58258380498719    1.94553504795184    4.09479861269375
C         4.54699289563749    1.83275905303983    2.96781295410620
C         4.98229707813446    2.41830918464696    1.62228293862155
C         5.67929730477681    3.77821637673546    1.71754857834755
C         6.71316229338387    3.90846272161807    2.84417462913608
C         7.97024208498602    3.04954609423130    2.65497880787071
C         7.73698649468805    1.53904134437569    2.71853040247708
C         6.84301209855015    1.09626588879101    3.87863612262499
C         6.94763824130830    2.18806748612353    7.98380900652189
C         9.05581926678325    5.66372267337596    6.47242924016434
B         6.01860876981744    3.50768268332946    4.26233147437725
H         4.72132723825391    5.16827235018302    9.28667553575716
H         2.68573532560544    6.18436440763494    7.88490493350883
H         3.50906842716068    8.48860240465770    6.79934308306837
H         6.03444305552276    8.90959061624022    7.56056178534598
H         6.78134615267664    6.85985957697676    9.12193822145810
H         3.45753672191918    5.54928253699719    5.20396421359368
H         5.10064104325811    1.56574859212195    5.00575339765819
H         3.65102963039833    2.36157977825240    3.30128671330000
H         4.27407655238147    0.78329674927348    2.81839097019271
H         4.09254027506699    2.53331510392492    0.99514343764917
H         5.62777178828091    1.71051095870936    1.10654223229087
H         4.91978929346504    4.54504160748184    1.89008915074064
H         6.15218344675027    3.99490325875234    0.75464554489031
H         7.04608964521902    4.95374443509335    2.84627022544458
H         8.66658234207736    3.32413281310915    3.45137624752181
H         8.44634081316437    3.29093910876778    1.69960693771221
H         8.70820570883389    1.04527414111701    2.82631414666748
H         7.32009091151312    1.19061316145122    1.77632718384719
H         7.43026841216532    1.15076130666388    4.79913282895196
H         6.56470955492216    0.04845316011554    3.72760036166768
H         7.83694331530021    2.29212011134476    8.60628616921538
H         6.24102581118157    1.50485695370657    8.45460234376028
H         7.23412683199289    1.80569187425484    7.00277811671991
H        10.03976693275130    5.66771406844761    6.94031219176943
H         8.62699152025417    6.66914146851262    6.49612359668447
H         9.14031046113458    5.33737806782585    5.43438969380429

