51
CSD_code = QUPSEZ | q = 1 | S = 0 | Stoichiometry = C22H18CoN8O2(1+) | MND = 6
Co       -0.63621518183981    3.10411256049223    7.13021469058443
N        -0.59756279834959    4.44867040476528    5.72310843477724
N        -1.75266672126478    4.13892771695237    8.18511625661292
N        -1.04932944845138    2.18202660914986    8.77201119520653
N         1.07501046429970    3.70510652363999    7.83611282817011
N         0.15559776740578    1.70814117698088    6.20550023095370
N        -1.97302000598339    2.08031511324812    6.19135123978414
C         0.23574709239970    4.28200145239936    4.68101377510193
C         0.33563952848891    5.15250857723560    3.62420173985262
C        -0.47658147902808    6.28503063716267    3.62023886508079
C        -1.32734461573936    6.47736487300298    4.67776596045492
C        -1.37916261411563    5.54913494213673    5.73898682931080
N        -2.25184962218347    5.84006201725057    6.74796246177789
C        -2.54346276051638    5.20064731497437    7.97326015693993
O        -3.40810228304579    5.64739899534539    8.68751524340999
C        -1.87007644143421    3.18821280738669    9.15264407415377
C        -2.63164576257579    3.13093401649716   10.31712273090379
C        -2.50966001382631    1.99329406595873   11.09045882172546
C        -1.65503336007675    0.96469072693649   10.69463025907030
C        -0.93981922400320    1.09117859527236    9.51916996561705
C         1.13247059831658    4.86329639226530    8.51680576242911
C         2.27622004421337    5.37332498618268    9.07925497418191
C         3.45992229402153    4.65025527772268    8.94382611694849
C         3.42416731549585    3.47126936447915    8.24530775602029
C         2.21784685310365    3.00319748418734    7.68314004096836
N         2.29318920931367    1.82519584109806    6.99699229002099
C         1.33934283328304    1.08151727326178    6.26738343127837
O         1.65621858775191    0.02499301766385    5.77679202578727
C        -1.03112514755224    1.20906646967370    5.76175923725344
C        -1.34790256841232    0.06719046272900    5.03034209450573
C        -2.68255519242601   -0.14447671583323    4.74541996071402
C        -3.64596529728690    0.76226342094699    5.18655797949150
C        -3.25342986637063    1.86800615745167    5.91632639923700
H         0.84726539653653    3.39217666015887    4.70255193647786
H         1.02507041507143    4.95286225492534    2.82174181586334
H        -0.43708482701339    6.99365567312263    2.80842073164910
H        -1.96983384242264    7.34309122019668    4.71666289340004
H        -2.81725423196494    6.67023498535047    6.61151331885192
H        -3.28358885052423    3.94992422305014   10.57289223399378
H        -3.07790035181689    1.89815125850621   12.00273457982539
H        -1.55096726815246    0.07432169437551   11.29201753220240
H        -0.27455358390638    0.31373095307501    9.16845049471551
H         0.20053231535285    5.39965767359116    8.61673831191439
H         2.24667291925254    6.30764864512312    9.61336595433527
H         4.38127572369976    5.00810785343308    9.37486775699168
H         4.31878066248209    2.88319135224470    8.11258380856298
H         3.20081208045368    1.37386941447065    7.00136223166748
H        -0.56561639084881   -0.60644833441814    4.72143162623511
H        -2.98172895792318   -1.01442335006248    4.18159723136375
H        -4.68940180194145    0.60700799087230    4.96836240165829
H        -3.96764158994558    2.59048127336705    6.28771131196746

