76
CSD_code = QUPYIJ | q = -1 | S = 0 | Stoichiometry = C23H40CoN4O6S2(1-) | MND = 6
Co        2.27142100436258   13.21480399902554    2.37601739096909
S         4.29508885708421   13.97192333988877    2.00191735265455
S         2.83231083274770   11.13113627809559    2.00075406415982
O         4.90304695027295   13.76634369631654    0.69100381501620
O         5.20599061317328   13.68678395220653    3.10903083553496
O         3.34935715862273   10.75121290640024    0.68964004500425
O         3.59997393563657   10.57235098150929    3.11019260651968
O         0.39548098552083   16.69966543443225    3.46959658043559
O        -1.65182633344064   12.71674246825555    3.47042823805705
N         1.78280334811256   15.04692115277492    2.81268536051368
N         0.49879426820029   12.55015919553266    2.81145841744450
N         3.28435662093761   12.75800251563290    5.12160422336797
N         2.20888392658368   13.24278956146452   -0.57261889575692
C         3.99364478299706   15.83543971646952    2.12200823867348
C         2.90403051463499   15.89715476099807    3.17309767538936
C         5.28919749051259   16.49059909960496    2.55325717635013
C         3.52084578810287   16.32800945674920    0.77039942932302
C         1.14397436005967   10.28952671011588    2.13382156154271
C         0.46575795461800   11.14657402467101    3.18306529251620
C         0.46140969733318   10.37772334656739    0.78522048773949
C         1.37046966951605    8.85855045625175    2.57470028696698
C         0.57117741383742   15.56035862173413    3.02745449779078
C        -0.65491219532822   14.72177733096768    2.62380507369612
C        -0.62353856771971   13.23668118480471    3.02710400322352
C        -1.89281618724695   15.35802515573720    3.26665266108873
C        -0.80750890970952   14.80103746849923    1.09731372879118
C         2.82350695580852   12.94913489993105    4.07696704881164
C         4.14595655949555   12.44812289818518    6.19097245974599
C         3.35422967549103   11.63550411964816    7.21759902556829
C         4.63853270133251   13.77239980747989    6.78021762859658
C         5.30522000009518   11.64398902815210    5.60070705847004
C         2.10200396432257   13.30020314677282    0.58279943958673
C         2.55422411591312   13.06218527607120   -1.92497027431189
C         2.59980975529942   14.44280568464717   -2.58621052264991
C         1.48026838147776   12.18162418852288   -2.57026444535593
C         3.92274895280206   12.38256524640921   -1.95483950884870
H         2.51752398782808   16.91925428186452    3.28532708312443
H         3.32743276676984   15.58087147193052    4.13789634860768
H         5.14240431376624   17.54856347520314    2.77535105002854
H         6.02759610706370   16.38994723055642    1.76011888309384
H         5.67406148869133   15.98687559492868    3.43684534124620
H         3.46911240826803   17.41728394174597    0.75274202814807
H         4.21369433642615   15.98734504869190    0.00333035277872
H         2.53101827978729   15.92976603641858    0.55788337465796
H         0.97951707823836   10.99611059484868    4.14434291422640
H        -0.58861329097849   10.86461018113795    3.30678832330796
H        -0.45839927841570    9.79175085026914    0.77880205270944
H         0.21471266419019   11.41382746941394    0.56348641692194
H         1.13473457976465   10.00038848870330    0.01801175173028
H         0.42667976080674    8.36167696000812    2.80403824012052
H         2.00740113826013    8.84792043138753    3.45608354108527
H         1.88020828948147    8.31173599260195    1.78372496899125
H        -2.78555980437527   14.81591266107171    2.96644400599012
H        -1.96972598437884   16.40039589173914    2.96906432629461
H        -1.80969668876002   15.31335586345631    4.34946030802739
H        -1.70555144558052   14.26614108938347    0.78957570793207
H        -0.89430973156514   15.84289085756100    0.79020338698455
H         0.05302000823185   14.35844986262241    0.60436737766875
H         3.99105162443844   11.38352747712926    8.06262214032197
H         2.49853184324720   12.20369651878060    7.57745194741340
H         2.99443765325894   10.71627880542084    6.76141980298261
H         5.32633523704403   13.58193992228106    7.60107221028332
H         3.80294446678770   14.36545710219558    7.14748130660310
H         5.15578526795263   14.33508155885192    6.00663349171113
H         6.00465390040121   11.35494688335913    6.38224843786216
H         5.80832839277491   12.24825957806197    4.84901877629338
H         4.92125260615665   10.76193050127035    5.09398217388017
H         1.70931949077379   12.03185136932737   -3.62292146079502
H         0.49934582670411   12.64582901968851   -2.48517801499052
H         1.45284281553367   11.21534350780749   -2.07409142873069
H         4.24184923442439   12.21774170656413   -2.98167625020500
H         4.64717637080389   12.99926875325215   -1.42835185285902
H         3.86995902646575   11.43771346057585   -1.41910087597965
H         2.85675421611862   14.34013968557805   -3.63805708837681
H         3.35030770776744   15.05880683514037   -2.09830005688006
H         1.63464829389976   14.93978592866839   -2.50582909893209

