60
CSD_code = QUQFOX | q = 0 | S = 0 | Stoichiometry = C31H23CuN3PS | MND = 4
Cu       21.01590755800959    0.98669697147503    0.51268706462638
S        20.85741434256681    5.34585991062901    0.25989521469846
P        21.80273552012568    1.15679853259062   -1.61557981604062
N        20.78763970559371    2.72750936903730    1.12791493270548
N        19.19013502821641   -0.08746198989212    0.26992188834733
N        21.50197291952311   -0.59606644159912    1.54343100677013
C        20.82412759308179    3.83703078250946    0.73335472561228
C        22.82166073279470    2.64910938671272   -1.78221180822314
C        22.80778195635417    3.46692827890559   -2.90756934746245
H        22.17968998447096    3.21648085382427   -3.75202217932945
C        23.58503961023054    4.61021746246732   -2.93186413489302
H        23.56545954964590    5.25244210130777   -3.80048588750807
C        24.37463345686488    4.94199812980025   -1.84282805828918
H        24.96527764858114    5.84589357648047   -1.86224463927325
C        24.39453325129095    4.12656936297749   -0.72338170915275
H        24.99874827818582    4.39348938130631    0.13095675137764
C        23.61875625219484    2.98367884408735   -0.69188779965627
H        23.59367660013086    2.35251490415402    0.18765943039979
C        20.43562491768740    1.47036444243457   -2.76580179273550
C        19.69183638282136    2.63043575618974   -2.54507124122109
H        19.99539946945658    3.31390526664599   -1.76316626924353
C        18.58094136104998    2.89745611907068   -3.32123393752069
H        18.01405197647033    3.80131589905741   -3.15324566641108
C        18.19309432365830    2.00426835422552   -4.30945495072500
H        17.32379118646269    2.21306930303531   -4.91571261158698
C        18.91915871403459    0.84342780788889   -4.51757310801340
H        18.61535489101699    0.14632831175746   -5.28549901637746
C        20.03642297535191    0.57019470607226   -3.74726828360693
H        20.60158364027548   -0.33671241310741   -3.91302918436481
C        22.76962965752188   -0.13330568898456   -2.46580285194337
C        23.82603178443277    0.13303933112225   -3.32845232296363
H        24.10983672506780    1.15561585942210   -3.53319388028865
C        24.50822617690107   -0.91475431758006   -3.92120361329573
H        25.32711439108791   -0.70800456090662   -4.59487170851993
C        24.14546789961416   -2.22542359797006   -3.65612536537272
H        24.68130145873138   -3.03838451439948   -4.12360453465037
C        23.10044073395625   -2.49511434049665   -2.78605968587062
H        22.82286754502612   -3.51766427950422   -2.57361148052646
C        22.41989399315222   -1.45256819772271   -2.18646620559526
H        21.60820913654355   -1.64286376707221   -1.49368954077823
C        18.06209625292775    0.21732700928963   -0.32727407680060
H        18.07607454159592    1.10061794632912   -0.95110992838065
C        16.90176923230442   -0.54699054699655   -0.18530789409006
H        15.99894482606786   -0.25067480090356   -0.69535894897624
C        16.93660083936362   -1.67765602968171    0.60118251762629
H        16.06112109743506   -2.29920843663413    0.72440491135691
C        18.12997930773217   -2.02463333131396    1.25127329467048
C        18.27226460340452   -3.17464234888710    2.07882613330922
H        17.41191452024575   -3.81353383226033    2.21663383078662
C        19.45334714050503   -3.46188668912782    2.67724410469188
H        19.55831542157803   -4.33792744607687    3.30081572595665
C        20.58975934076497   -2.61648965008156    2.51671775126504
C        21.82587148281984   -2.86623979396618    3.13018492240514
H        21.94864979760252   -3.73746115940089    3.75652597014345
C        22.86584027792770   -1.98317354494786    2.92158617585683
H        23.83003854485603   -2.14463733580238    3.37705247152174
C        22.65883789505990   -0.86231852506846    2.12398525076993
H        23.45372475620961   -0.15001947684571    1.95379041174164
C        20.47762502306157   -1.45831275842962    1.71630217008107
C        19.24205577036025   -1.17225414514940    1.06171682298334

