31
CSD_code = QUQGEO | q = 0 | S = 0 | Stoichiometry = C14H10N4S2Zn | MND = 4
Zn        2.31818952828492    5.19123692472008   10.29112685110824
S         1.46077405255896    6.87108644061093    8.95386448946324
S         1.46788543085517    3.34094141146946    9.19198437260160
N         4.49446754882828    5.35386320954200   10.49104721108659
C         0.61843254949522    5.71541605216468    7.95349975386477
C        -0.14730844387335    6.31781652083018    6.93869325933618
C        -0.14371997291777    3.61273516639082    7.12313478162625
N        -0.75767944677623    6.85080404401764    6.12539786139462
C         0.62104361404931    4.34896756762934    8.04626388033813
N        -0.75995842683625    2.97387565625756    6.39474823469525
N         1.51679687653883    5.23308884255133   12.33648884277147
C         6.51529611114028    6.27064821486450    9.62729378861564
C         6.59060701281664    4.42943493198850   11.13917310850539
C         7.26014432425350    5.34725982089199   10.34393182438543
C         1.52179673463817    6.35200421614037   13.05470093269832
C         5.13526587927627    6.23616529871620    9.73028045645602
C        -0.02010910925713    5.44800388738824   14.63160904934481
C        -0.02207359279262    4.28025915093977   13.88496676244012
C         0.77128282284433    6.50448806696720   14.20707695874006
C         5.20821329212904    4.46990954896478   11.18102666198253
C         0.75963344739078    4.21871672378641   12.74444958053176
H         4.51382935697128    6.93535755837431    9.18693472359514
H         6.99126522126425    7.00297544868804    8.99517475296395
H         8.33793386204860    5.34104199323935   10.28348957415103
H         7.12802986188696    3.69233778242187   11.71411296260464
H         4.64446660645068    3.77090027678927   11.78304637136365
H         2.14758964415326    7.15159711579907   12.68318757826316
H         0.80306979368959    7.43308219000158   14.75417449873785
H        -0.62413560624683    5.53475247225822   15.52207726263936
H        -0.62281137894255    3.43282678601456   14.17371219940389
H         0.78068240608170    3.33120667958264   12.12623141429730

