89
CSD_code = QUQJUH | q = 1 | S = 0 | Stoichiometry = C33H53P2Ru(1+) | MND = 8
Ru        3.24620473812831    1.70682097845039    4.67468449698903
P         4.60522493791800   -0.21464600128776    4.63383807756960
P         1.53430196698120    0.12456487590911    4.95701613511693
C         3.26618594782101    1.83058040288936    6.58898584096122
C         3.28676226785070    2.29197638742503    7.74583345470574
C         3.30117637299352    2.73335358210072    9.01936826186879
H         3.42822065061549    3.79789236440534    9.18687175697596
C         3.15393824620790    1.91463670839374   10.18314706300428
C         3.11716007552831    2.51515439862675   11.45131525835775
H         3.19884007549204    3.58956253021445   11.53161578171684
C         2.97411633410017    1.74635975516316   12.58662280142901
H         2.94545329910282    2.21899397033677   13.55649570449063
C         2.86844580365759    0.36619400675083   12.48538708797997
H         2.75768673352549   -0.23318572563924   13.37576893543872
C         2.90867203436660   -0.24356392293743   11.23838705704249
H         2.83106272697477   -1.31773712928491   11.16253585294231
C         3.04938327996324    0.51710150310631   10.09871761298375
H         3.09074814711756    0.04473778012433    9.12878403758067
C         4.40848906254417    3.60188414838421    4.31462876433621
C         3.05554201878982    3.95659965733652    4.60263496630335
C         2.22494428859628    3.41981974775883    3.56823430978180
C         3.07090272446078    2.73518404206438    2.62485971137803
C         4.41553823923615    2.87387557952659    3.07318426792312
C         5.59968340534364    4.24253258500385    4.96221951329917
H         5.52102241572420    4.22947311221261    6.04837982912281
H         5.65452533798960    5.28566353472422    4.64351346360301
H         6.52723345422663    3.75469413845454    4.67417428965718
C         2.63188936767954    4.96915573034207    5.62113538901216
H         3.28828062149316    4.95382449562089    6.48789087752118
H         1.61071285537127    4.80206422436080    5.95763229539208
H         2.68251793178802    5.96360472429214    5.17270901199063
C         0.85684892315361    3.93980074416149    3.25107111400541
H         0.28874602905056    4.17223222888454    4.14773326592537
H         0.28127442182745    3.25559141270048    2.63269818829013
H         0.97789761343844    4.86746927000884    2.68551230418036
C         2.64608327632703    2.40164019424732    1.22273522447405
H         1.74948258421832    1.78486226721605    1.19480506713246
H         3.43224954690060    1.88701249791066    0.67631846856758
H         2.42601981812167    3.33101673490215    0.69285756062501
C         5.64002723847483    2.66513392982568    2.23795932660570
H         6.50728000411958    2.41219251021977    2.84469655941546
H         5.86083453865586    3.60194603865266    1.72087097180956
H         5.49710248008939    1.89508846507778    1.48436483490594
C         6.01084559857199   -0.37333452055905    5.85079777546328
H         6.54223555118013   -1.29722938759538    5.60016370099357
C         6.93529430705010    0.82599186644994    5.68344367091112
H         7.33776299342124    0.87967962963605    4.67326960794298
H         7.77167688406438    0.76310648105282    6.37627462311422
H         6.37877847813879    1.73781323829009    5.89798199810801
C         5.52657687552465   -0.46641891121440    7.29164421964040
H         4.94087798740135   -1.36602363025635    7.46487145119131
H         4.92711548058461    0.40693685213416    7.54036006337108
H         6.38320683705600   -0.49293994592558    7.96226476568810
C         5.43052441007917   -0.73676182430923    3.03827391968231
H         6.12825914878003    0.07277385965824    2.80027695398864
C         6.21892591879982   -2.04269650092369    3.11247982006502
H         7.12766006013559   -1.94016504213286    3.69868354998426
H         6.51417784029381   -2.32833513367905    2.10422071275970
H         5.62020262530798   -2.85078601548262    3.52561725060365
C         4.38155425017899   -0.81628889558463    1.93009621826649
H         3.65858385070258   -0.00622147963374    2.02782176155035
H         3.84913989536174   -1.76457667097673    1.96704135796247
H         4.85391782967990   -0.74628799215019    0.95209920069520
C         3.58259334154230   -1.71157493470511    5.02406990775717
H         3.27499129233752   -2.16636315103678    4.07989921562382
H         4.18429824569043   -2.43782000891665    5.57726178558842
C         2.35790851234458   -1.28696236986891    5.82072481549575
H         2.67192484118669   -0.89767829822149    6.79254353839856
H         1.66330759614164   -2.11527516807793    5.97410056872141
C         0.77336065577751   -0.72252381361394    3.46699913188355
H         1.60388139087581   -0.83690327794218    2.75905260326448
C        -0.27180961861665    0.18500865054206    2.82447352200387
H         0.11628301240030    1.19540337723604    2.71969537817932
H        -1.18025442035431    0.22188773522387    3.42104861388294
H        -0.53608395067162   -0.18611464715007    1.83577007259445
C         0.17837624025088   -2.09824348945742    3.75489786666793
H         0.94414527581376   -2.83934689563212    3.96741940608082
H        -0.37064144714639   -2.43543592651844    2.87747401412780
H        -0.51941178072335   -2.06690859405164    4.58881405414056
C         0.05699979843154    0.46902247409324    6.05153060577549
H        -0.75956361198025   -0.16943372715315    5.69569633096929
C        -0.33594025639494    1.93334182158565    5.88688701676692
H        -0.63635036161239    2.14763938367732    4.86515109669419
H         0.51519284651250    2.56339774534271    6.15137722937867
H        -1.16651394185063    2.18085953541427    6.54494995442861
C         0.31078725556983    0.16960306757685    7.52471365525499
H         0.47527565224753   -0.88878708840525    7.70556725235784
H        -0.55931682825279    0.47278304349446    8.10411190218397
H         1.16613160221151    0.73653010113554    7.88419304738420

