95
CSD_code = QUQMIY | q = 0 | S = 0 | Stoichiometry = C33H56N2OSi2Zn | MND = 3
Zn        6.63615528031721    8.31028487529689    3.96977592918394
O         6.61608861198147    8.39563469250116    2.14477123288281
C         7.03689639597984    9.32811235904402    1.35416137668600
C         6.92256750385686    9.17277731947594   -0.06462233001256
C         7.39439938602314   10.17104429477504   -0.87890892491234
C         7.98821573084360   11.35830716363196   -0.40932741112742
C         8.08662141953259   11.51535393978667    0.94465983898626
C         7.62254583969696   10.53078189054045    1.84691876215008
C         7.76040713797880   10.83192607007650    3.22367689682893
N         7.42963296399408   10.10242911643082    4.24351859235514
C         7.59147957678622   10.65847117970030    5.53282664704945
C         6.83236878795947   11.77077217798332    5.92115230176753
C         7.03329657999516   12.29630622784301    7.19125773887168
C         7.95286955615733   11.74065912574726    8.05701350822463
C         8.67215545195146   10.62417036540287    7.67338425157222
C         8.49907123480371   10.06015154175298    6.41848437004735
C         6.28304191173954    7.90951199281804   -0.63029852727914
C         6.22987304736454    7.90652435376079   -2.16232175711903
C         4.84251991965847    7.79745857380458   -0.11156667839361
C         7.09589980023083    6.68503830254792   -0.18710765746141
C         8.47519096200014   12.38802968554777   -1.41690076519302
C         9.10216605155453   13.61184819751166   -0.74348672573826
C         7.28734178980655   12.86457706619532   -2.26438504147619
C         9.53560614009297   11.74558955795988   -2.32194445156922
C         5.76816987327872   12.37691632541539    5.03339840307422
C         4.40818039785592   12.34014281848369    5.73654656768934
C         6.12916288388753   13.81114567953242    4.63810360461649
C         9.30457125212982    8.85947652973381    5.98426616777421
C        10.58507703088279    9.32435207836211    5.28328857495095
C         9.63288048544482    7.91154574161985    7.13528737757609
N         6.06256150937981    6.97573606381119    5.11939075275672
Si        6.72673350855670    5.39840005356770    4.89301510827243
C         7.06554322373545    4.52609669187823    6.55467589327769
C         8.39502376366389    5.62109300256044    3.98110980886675
C         5.61474038386903    4.29160463201572    3.79949779401876
Si        4.71920287579820    7.42186471970751    6.10534895305655
C         3.62498930099608    8.57323234533740    5.03607248508042
C         5.31787610401833    8.39236325345377    7.64333574579282
C         3.64743105225018    5.96508805228282    6.69289830823987
H         7.31033977106981   10.05029591630251   -1.94517072852847
H         8.52370419749304   12.40385554968343    1.37297578854676
H         8.20856368095285   11.80803592462154    3.43878707739518
H         6.46234293878445   13.15608634713325    7.50609469973860
H         8.10385958144668   12.17128343313710    9.03560817048954
H         9.37898250885044   10.19214310930558    8.36266867910694
H         7.22763825039061    7.94846528948339   -2.59389124314462
H         5.76101171659986    6.98409103448991   -2.49887237997128
H         5.63765434899272    8.73729054751294   -2.54011892516906
H         4.26434273835510    8.66812501788147   -0.41624185520390
H         4.36875843478989    6.90660687596339   -0.51859708695497
H         4.83028235565372    7.73136004603280    0.97181973201927
H         7.09343344512364    6.59522162169890    0.89429640201000
H         6.66540594747040    5.77984539615338   -0.61027841404147
H         8.12546555499753    6.77257483523448   -0.52970838260943
H         9.96343330156803   13.32837220674226   -0.14302076392596
H         9.43900862551429   14.31264559527376   -1.50465885857826
H         8.37938579753858   14.12370179360375   -0.11238762578750
H         7.61419310281676   13.61804675274142   -2.97798645450507
H         6.84000950665687   12.04413150718023   -2.81832559313666
H         6.52235565617639   13.30167883072079   -1.62608304111813
H        10.36876718370321   11.38203176592624   -1.72418516655529
H         9.12725639341359   10.90850237715801   -2.88099323345475
H         9.91364684331845   12.47669428751393   -3.03352524276506
H         5.68076641996249   11.78430442671329    4.11692628743534
H         4.38958373539564   13.01051875261907    6.59202281262387
H         3.62500251679646   12.64695670829989    5.04652215174578
H         4.19159542694713   11.33261838839446    6.08285329945943
H         6.20745785189172   14.44582408529832    5.51750901193419
H         7.08093654031582   13.84160513791681    4.11182513915432
H         5.36289891759866   14.22218609904350    3.98446186371999
H         8.70343144385892    8.29077502455324    5.26077794409587
H        11.19379915949054    9.91720305463604    5.96390061325916
H        11.16707486903987    8.46657228701995    4.95417494538803
H        10.34927074936913    9.93305676206858    4.41270236220707
H         8.73341340550623    7.68371468784248    7.70105719192618
H        10.03223832311475    6.98083557709251    6.73925127710918
H        10.37872179722897    8.33615825180453    7.80349231582731
H         6.15213667844658    4.11286158036140    6.96509686629591
H         7.76598306626240    3.70741663168364    6.42672577793688
H         7.47873811241699    5.20826212226767    7.28922544732187
H         8.65374642276976    4.73655856421114    3.40859540655257
H         8.34318377975110    6.45663180534493    3.28267372112733
H         9.21176595952710    5.81245461576707    4.66913109417766
H         4.66406051729225    4.09438417857328    4.28297055856846
H         5.40664954050768    4.76933139480616    2.84696994820599
H         6.08428305712699    3.33401766240536    3.59609128443175
H         4.24605100843194    9.27598753158485    4.47696840995447
H         3.05080018921655    8.00239734228131    4.31305832357694
H         2.92314009053693    9.15038470345303    5.62965543343358
H         5.93336536732104    7.76509782771153    8.27987787223541
H         5.91083760544996    9.25858274963993    7.36635783687202
H         4.48099581795625    8.74096549451185    8.24047513589045
H         2.76066661257013    6.32730144473784    7.20230503467084
H         3.32474557469524    5.34478023950830    5.86529153749768
H         4.19206283536712    5.33725074873025    7.38708082012330

