104
CSD_code = QUQMEU | q = 0 | S = 0 | Stoichiometry = C41H59NO2Zn | MND = 3
Zn        1.94967374061459   18.08937089009887    3.05349032609615
O         1.05950732371626   17.84522770644450    1.49535870362677
O         3.20972192109219   19.23052405247368    3.46625179996874
N         1.17685006638369   16.63189025745643    4.05545912104357
C         0.25453159165145   16.88159113331050    1.18795475779564
C        -0.27458484670341   16.78515108899152   -0.13866161248407
C        -1.14764451484219   15.76743511143473   -0.42843840519767
H        -1.54680872842054   15.69929973248763   -1.42562777462352
C        -1.56318092965813   14.79320650805004    0.49997347343010
C        -1.04596883871906   14.87181637365250    1.76173027790071
H        -1.31274008682306   14.15301673845621    2.52063555678559
C        -0.13751641559940   15.88997884103532    2.13530821430663
C         0.34345125429390   15.83133525724813    3.46422444617703
H        -0.04483232197376   15.00079064265505    4.06247469760710
C         0.13876763045119   17.81069094769017   -1.18838737043363
C         1.66381014060820   17.77742007745747   -1.36194404886870
H         2.16044644595713   18.06643716105452   -0.44125467954115
H         1.96435197174235   18.47111157733686   -2.14417827684581
H         1.99015298742421   16.77666841064858   -1.64033626065386
C        -0.30298252473156   19.20667399426231   -0.72899153407405
H         0.17609572944319   19.46502454294684    0.20943030169598
H        -1.38261150805919   19.23542097393522   -0.59202564857268
H        -0.02634983177276   19.94895205502486   -1.47461876071478
C        -0.49342829186162   17.54378346965071   -2.55888873701038
H        -0.15217562070898   18.30291498241154   -3.25965763767658
H        -1.57901345602297   17.59902428161922   -2.51328490821648
H        -0.19670676878350   16.57272376584072   -2.94970992781050
C        -2.54432558519129   13.72041885268776    0.05461484266681
C        -1.92048178114368   12.91160963837616   -1.09116479171963
H        -2.60225972568520   12.12586811449215   -1.40957723697088
H        -0.99120998804459   12.45068953091396   -0.76284687184785
H        -1.70335752556117   13.54071555256651   -1.94978928212620
C        -3.83908323695904   14.39078117938139   -0.42547636156788
H        -4.56344231790627   13.63580286903761   -0.72366833776286
H        -3.65866311920183   15.04166495889411   -1.27627034161007
H        -4.27170471691553   14.98782809588846    0.37460590349520
C        -2.90074597996916   12.75080500463051    1.18473029662463
H        -3.60678584208574   12.00891898592041    0.81742360586732
H        -3.36633644352505   13.27472364022781    2.01633574145078
H        -2.01817180607407   12.22544491753866    1.54226621327078
C         1.56713642954627   16.32542224127168    5.38073847196963
C         2.34100692184479   15.18753126644217    5.63758782629932
C         2.70048039362201   14.92146342809975    6.95264781857803
H         3.29471899189667   14.04843883740107    7.17444668477221
C         2.30725535450604   15.75261508312618    7.98157697500825
H         2.58717918817554   15.52283146485403    8.99881194148179
C         1.56046994375757   16.88414831863424    7.70999047416738
H         1.26608547429577   17.52728434764865    8.52296145055821
C         1.18512295801358   17.19421764156718    6.41178297079949
C         2.83315223703009   14.27713563667930    4.53435992386459
H         2.49520663917715   14.66093452613155    3.56625025748215
C         2.27515727966579   12.86135661723892    4.69840569357399
H         2.60458561070468   12.23274945967148    3.87394984092568
H         1.18703942850943   12.87303336481029    4.70770170522991
H         2.61773071095864   12.41447253878147    5.62828981209850
C         4.36355089378453   14.25875490580275    4.50952242019951
H         4.71517686478527   13.68147979715656    3.65678701760113
H         4.76603392352339   13.81085272510417    5.41442929124664
H         4.74650106509317   15.27296040758690    4.42728488068647
C         0.33510945898191   18.40324823388823    6.09911005639488
H         0.64611740771251   18.78819773386004    5.11593519940136
C         0.49894932211409   19.53998664879932    7.10473744777108
H         0.04193760797733   19.29184359399884    8.05996358221195
H         0.00975669791282   20.43357349943707    6.72417987113934
H         1.55066621485703   19.76565232504338    7.26074224862995
C        -1.13740662084328   17.98863280049481    6.00606264516326
H        -1.75773643347729   18.85361487842993    5.78221866081256
H        -1.46565594249015   17.56143053207252    6.95195167321770
H        -1.28752527374777   17.24831463597593    5.22307986344061
C         3.83771882698298   20.04130277245034    2.59504485293867
C         3.38293599044315   21.37018375335472    2.41578138524304
C         4.02753228118790   22.17077076446970    1.48567475664944
H         3.69286710338690   23.17889191963760    1.30734222301489
C         5.10646968429953   21.70766049361466    0.76078101170222
H         5.58341149752244   22.34505967185197    0.03045676596611
C         5.58894160671409   20.43550213538467    0.98974112974572
H         6.45099040218882   20.11373855661049    0.42996999507806
C         4.98906936601518   19.58715734151239    1.90817868373303
C         2.21377291270763   21.92684244632359    3.22860250373722
C         0.91152361951059   21.22444638518100    2.82460916435164
H         0.70303633932831   21.40290673173811    1.77152854742166
H         0.07711153653731   21.60031543006082    3.41505231130609
H         0.97490820310725   20.14268372153306    2.97805887750177
C         2.49383819141678   21.74033898539838    4.72602084191264
H         3.38256476853907   22.30244465122361    5.00549154539056
H         2.66582979773566   20.69531435741141    4.95971270812442
H         1.65404705570333   22.10389687297988    5.31591706764290
C         1.99165553026089   23.42957970098904    3.00396067858289
H         1.69548694912614   23.64269719819193    1.97959363060428
H         2.88718510421991   23.99753001797996    3.24373749502307
H         1.19155463604925   23.77147805168042    3.65868829122997
C         5.58250027659592   18.20205062391765    2.17288772773447
C         4.63098549494062   17.10791727678509    1.67237479160720
H         4.42543742930019   17.24436783643709    0.61225083169264
H         3.67700486643121   17.13054022297911    2.21376526557835
H         5.07267652984552   16.12359434820914    1.82028530109656
C         5.85586661954257   18.03900393780082    3.67472590130877
H         4.94122498435599   18.13739403625003    4.25116826273081
H         6.55028089915049   18.80804417718207    4.00639438742341
H         6.29980998879176   17.06458690406195    3.87492624924112
C         6.92119431560614   17.98185277376023    1.45278931583402
H         7.32193717021907   17.00978399150701    1.73614042674524
H         7.64693539816327   18.73949268636549    1.73736339125798
H         6.79994382576423   17.98849982084125    0.37220750264162

