82
CSD_code = QUQTIG | q = 0 | S = 0 | Stoichiometry = C35H38Cl2N6Ru | MND = 5
C         4.39541554566888    6.30499344074119   12.96820675511361
C         2.18197258598796    7.01546732610471   13.20073976071628
H         1.92338505478287    7.92866269045701   13.74382648939823
H         1.32657463919091    6.33447062255210   13.24995877421734
C         2.64492667575008    7.29592652739183   11.77302078676099
H         2.07943743935366    6.73489008368437   11.02105030132693
H         2.59905831933935    8.35740462059026   11.51579352831938
C         3.24281279804703    5.85744875107384   15.10995214237908
C         2.90966632565838    4.50813729358082   15.26144289521752
C         2.69031739292586    4.02047992742377   16.53874138553036
H         2.43735755981525    2.97827962333123   16.66860107584875
C         2.79343847305875    4.83946612994233   17.65478341952502
C         3.13421596500011    6.17180625698911   17.47635647297903
H         3.22559853213480    6.81633719763210   18.33933708838123
C         3.35972507065876    6.70269212471458   16.21443922483663
C         2.81023345069479    3.61330506727656   14.06621477435790
H         2.62518573505904    2.58761037697725   14.37146064632614
H         3.74303681767158    3.64343928999293   13.50261872968267
H         2.00185941919423    3.92803848263954   13.40577126205448
C         2.51919998199378    4.29313012192141   19.02202519669779
H         2.99664197887199    4.90018465616125   19.78691121113591
H         2.87827169688789    3.27001617971338   19.10431837444826
H         1.44553125744829    4.28996331761323   19.21266775280874
C         3.73158455057257    8.14333782082862   16.04465386243755
H         4.50611528754570    8.25398424611982   15.28672067300952
H         4.09912995697694    8.55425981368147   16.98132209441582
H         2.86731334053114    8.73331977608734   15.73797599585308
C         4.77363907660425    6.82811904602969   10.58492822208558
C         5.44785342739661    7.98577795908346   10.17946900792892
C         6.15307980848507    7.95784828563606    8.98456861688720
H         6.68418624799660    8.84514649003271    8.67047674757286
C         6.18864494212377    6.82383219696646    8.18582122349057
C         5.46626397975299    5.70859345613792    8.58417310450036
H         5.45817225682372    4.82807011477230    7.95773163039736
C         4.73752486878711    5.69430275771786    9.76653185309286
C         5.40834284664655    9.23400360444410   11.00503396393739
H         5.63101076528996    9.02321392400714   12.05151731083421
H         4.42063490805425    9.69300428308776   10.95806114332202
H         6.13211547023399    9.95674567085400   10.63683865865161
C         6.96106299985999    6.80648043913145    6.90257647480317
H         7.52872054572249    5.88266173117245    6.80856359014563
H         7.64640227084826    7.64848704616103    6.84808361953760
H         6.27878007626818    6.86490365470808    6.05449299896563
C         3.90190564218417    4.49497243806611   10.09536845269088
H         3.02277572254738    4.47493121777602    9.44879086675804
H         3.57749798870910    4.49576296441418   11.13181125701293
H         4.46766829027549    3.58211016690438    9.92490283956107
C         6.07040761138938    5.39838690511860   15.26737249349394
H         6.12629080020329    6.29808327400537   15.89876748283812
C         5.92080906460820    4.21890475343675   16.05671821998808
C         5.81649909142943    2.92318886183953   15.52059126186625
H         5.84676197907623    2.79662610003743   14.45037904758047
C         5.68102966682228    1.82515078510471   16.34301041077353
H         5.59669806643825    0.83958272459550   15.90857348818773
C         5.65766357127443    1.97459583536882   17.72222464993638
H         5.55427905229225    1.11016182244020   18.36183458489469
C         5.77425490238811    3.24072865127490   18.27539752886383
H         5.76627118969127    3.36396669954970   19.34874542658014
C         5.89781239534973    4.34461652091555   17.45977229408595
H         5.98432289666597    5.32819247963040   17.89894237478159
C         8.29561987448800    5.38673234973970   13.29187172844594
C        10.17857247561603    5.30437025978494   12.07667719405946
C        10.42437110201872    4.69481266896918   13.29234554305718
C        11.03315909269753    5.50144839066810   10.98600699970354
C        11.60768912540678    4.11137483257997   13.75860490686278
C         8.17575979052037    6.39898977275246   11.06188824595482
H         8.87547925093639    6.68541468101608   10.27740953240456
H         7.70039055944659    7.30127651712357   11.46674174197534
H         7.41077439719729    5.74055006390478   10.62956968057575
C         9.10498239627268    4.23870032167814   15.34036177508582
H         8.49436172347280    3.33313591333945   15.32133343664704
H         8.60370138894663    4.97758906420351   15.96671290085732
H        10.08754215376842    4.00887066722118   15.75098199938586
Cl        6.76594291340094    8.03179905586343   13.94770610209805
Cl        6.13530123601014    3.66152973278605   12.28428790092483
N         3.35943188867141    6.39045271429375   13.79959580155244
N         4.03166193678536    6.83984977475606   11.79809196115552
N         8.87401036772998    5.71668431429912   12.11651988753763
N         9.25542489714939    4.76519164472113   14.01127379006047
N        11.71629956792694    5.67455004389181   10.08125466671406
N        12.57571194965673    3.63538191538944   14.14859363156203
Ru        6.31072363861853    5.75769067212824   13.40818905350082

