42
CSD_code = QUQTEB | q = 0 | S = 0 | Stoichiometry = C12H19B9CoN | MND = 10
C         7.95530165264949   11.97316462400229    0.42253249611354
H         7.31126176348537   11.77905109202147   -0.43045620580970
C         7.30247979410817   11.92866866942991    1.85236593962952
Co        8.22262517841338   10.20084102220943    1.33551805182004
B         9.55561728092182   11.45797265924994    0.40017586402788
H         9.98127014813058   10.92878281643181   -0.56382356779241
B         9.13907017513620   13.18178965675769    0.25489448765061
H         9.26734186192052   13.68808560604788   -0.79772993384753
B         7.68820364045700   13.48416163476579    1.18424489020220
H         6.77850382459450   14.12766142907265    0.81496356599226
B         8.45201692698561   11.39090648857242    2.98976326608175
H         8.10148680977656   10.79115003818131    3.94155254493091
B         9.94793268887392   11.10332253322324    2.08628642123429
H        10.74338826156421   10.29855189344352    2.41206410868692
B        10.42687391733248   12.65934178831240    1.35778464446148
H        11.56175570700638   12.89419479710071    1.16120871521644
B         9.26388828552204   13.91073230528054    1.87073389625536
H         9.57251926689544   15.03191055319208    2.03804769475490
B         8.02322151413474   13.11162892140170    2.86400970487451
H         7.35954524038297   13.59012275516454    3.70717877797022
B         9.72079386392235   12.61384020627358    3.00309284327969
H        10.35510754717167   12.81580227311922    3.97218589107321
N         6.77756022238598    8.87391987345745    0.52958060096419
C         7.98394960438966    8.66576437726174   -0.04838291721247
H         8.09114833509537    8.71047081941148   -1.12064758965493
C         8.94974133008360    8.27439901617600    0.90095302266331
H         9.95625539272048    7.94774494390358    0.70632002239539
C         8.26806395544372    8.25085460486229    2.14209599709028
H         8.65051029940193    7.90005941710220    3.08484618630459
C         6.94183296522175    8.62495847004701    1.84888022434462
H         6.09446486925436    8.64568516747906    2.51572060063222
C         5.84859287755055   11.64464595032300    2.00242268854586
C         4.97404613192877   11.57583210974920    0.91720411236523
H         5.32775088102732   11.72551950045289   -0.09063761888118
C         3.62893678004352   11.31429788777625    1.09805875471258
H         2.97880793235141   11.25878182802891    0.23717724324552
C         3.11413939288915   11.12318656829841    2.36766545638210
H         2.06397293478876   10.91467674211838    2.50616897178798
C         3.96287984168193   11.20649996240283    3.45814090007788
H         3.57552009562406   11.06929120686256    4.45738915598818
C         5.30760096485558   11.46613648450754    3.27829209483510
H         5.95021984387526   11.52989130652522    4.14195799660827

