109
CSD_code = QUQTIF | q = 0 | S = 0 | Stoichiometry = C41H57BN8OPd | MND = 5
Pd        7.95212974340839    2.38958781033077   17.73317467547643
O         4.52231668062698    4.84824796593831   20.63026705679525
N         6.06810573776485    2.51795061820344   18.34967063169296
N         8.38888368960651    4.29746257720523   18.08077243833209
N         8.88696738810214    5.03333722762797   17.07007763505777
N         9.88266110974195    2.30325283565951   17.13477066757473
N        10.31469201958608    3.16572260341465   16.20515661301339
N         7.37276905190731    3.18326013172739   15.33045798408836
N         8.34441227626729    3.97074811936064   14.84132469134257
N         7.57328346745723    0.47602873547680   17.35004037830921
C         5.15091377925074    3.25371177946022   18.36410751923279
C         4.02646793493198    3.97787976484722   18.49396389120220
C         3.76433773207076    4.74663999483356   19.66167720359127
C         2.46527940357981    5.49393536831159   19.65613283126171
C         2.42303047672383    6.75113500783856   20.25042868743566
C         1.24576267631490    7.47421138791626   20.28499462649240
C         0.08912809288871    6.93991031162012   19.74110311767849
C         0.11640446341041    5.67910924969732   19.16848516736822
C         1.29727724321632    4.95996998196869   19.12244578946461
C         8.16651749518002    5.08576944981220   19.12897161934466
C         8.50764383208898    6.39240975510433   18.76847075329781
C         8.95585721145729    6.32457431113822   17.46215185424987
C         7.69175984697127    4.57829543434819   20.45843900696511
C         8.50683516668296    3.35235604118625   20.89095254781505
H         8.14839114466263    2.99629017182375   21.85376004829787
H         9.56081614482025    3.61466733000687   20.98621856749206
H         8.40380994441384    2.53531789235580   20.15584878117224
C         7.77601349238403    5.66963449846017   21.52321884754383
H         8.79549316597954    6.03781983490504   21.62922806744153
H         7.44646983305155    5.27027820419251   22.47854801300583
H         7.12029492341126    6.49619810653887   21.26720823143404
C         9.37610448019573    7.44943654157160   16.56919113572826
C         9.72018756508285    8.70373105936497   17.36971290997973
H        10.48363812713514    8.48836768645024   18.11346267813569
H         8.83878920419797    9.08922762546494   17.87523348128394
H        10.09548727808800    9.47660467111601   16.70261994386161
C         8.25044137165727    7.74104835110246   15.57105359651203
H         7.35874647019693    8.06760772340203   16.10161815873613
H         8.00607672212891    6.84534090195149   15.00683640291538
H         8.55107352094034    8.52461496280585   14.87892705870972
C        10.86082462450861    1.45098671856581   17.42114839331524
C        11.96511109472600    1.76073162692665   16.62679967018824
C        11.58176812402584    2.85365856320192   15.86606312100714
C        10.72206077390985    0.41853188221367   18.49688906360744
C        11.76238967290391    0.66506597381067   19.59189949700739
H        11.63320525394458   -0.04892660313131   20.40190883269495
H        11.65439048644188    1.66949040238399   19.99406467354115
H        12.76860557229957    0.55785813614506   19.19369714408753
C        10.86045019172330   -0.99366937551100   17.92608774567470
H        10.12431211555324   -1.16891322099414   17.14356350595536
H        10.71501871227523   -1.73426122609856   18.70940374483299
H        11.85171759105387   -1.13247515005036   17.50055566550693
C        12.40136920539774    3.60554212127237   14.86532506979525
C        13.23566149682086    4.66987687100443   15.58566891787195
H        13.91317900088427    4.20060538184769   16.29553749643789
H        12.58810335858550    5.35408968425071   16.12874723738820
H        13.82256819354060    5.23839618862126   14.86806214630558
C        13.30393492251059    2.66123946500983   14.07095014537535
H        12.71944946101994    1.86575590100675   13.61387024365190
H        14.05605900306688    2.21237012348211   14.71452797057800
H        13.81429613657940    3.21103274673468   13.28361068271548
C         6.47825416665428    2.99294783393511   14.37302407062694
C         6.88293282679112    3.67011843754842   13.21708189671485
C         8.07609916512934    4.28490359053687   13.55186197268888
C         5.24893174703333    2.17955126813708   14.62557665663576
C         5.12634078724317    1.03397058360987   13.62024208296951
H         4.25481436180121    0.42329087122537   13.84724752401052
H         6.00949183942344    0.39907111629394   13.64902067533025
H         5.01762837382176    1.42637547909848   12.61149319407913
C         4.01317597722059    3.07969372190848   14.57147154000990
H         4.11751967393176    3.89711736618207   15.28059901402922
H         3.11833581204482    2.51261720352307   14.82002125524037
H         3.89225065746920    3.50033432340084   13.57518124711369
C         8.96876740534296    5.09122198882997   12.66186216298836
C         9.76029545345763    4.14845157616288   11.74839607511061
H         9.08182992225880    3.59283887522320   11.10471791510662
H        10.33277598905675    3.43588400441360   12.33847085786035
H        10.44697198918968    4.71396492848541   11.12208748857389
C         8.16031651610934    6.08686217590268   11.82890759685647
H         7.56411421176568    6.72920149147343   12.47254379170209
H         7.49201024258529    5.56535669345202   11.14872076761726
H         8.82871858097296    6.71114304969605   11.23980606620230
C         7.76162083358810    0.00679881242845   16.11611208659913
C         7.45771501899970   -1.29514994194491   15.75970035457076
C         6.93733422618514   -2.15225017423846   16.71816917437583
C         6.74064895084461   -1.66077721130800   17.99948800992900
C         7.06833680165380   -0.34462876738317   18.27352874450781
B         9.47391303042921    4.40752041621501   15.78188186647871
H         3.32946714308150    3.99454151258888   17.67277508385355
H         3.33037294182869    7.14592022343961   20.68449891823100
H         1.22592548302846    8.45397848193088   20.74150150797897
H        -0.83436882218474    7.50068536378926   19.77095219343864
H        -0.78890528378526    5.25364008431033   18.75751526748861
H         1.30326824543136    3.96922447519772   18.68986553762567
H        10.18645157375783    5.18887397331436   15.26092297961706
H         8.43517831300661    7.26640528352436   19.37918882006411
H         6.63568437006944    4.29122195694389   20.37067307407195
H        10.26601851480260    7.14449343274119   16.00952898453815
H        12.91116050577300    1.26058656321145   16.61332699324303
H         9.71954051583446    0.53531726988790   18.94259278666041
H        11.72507241316380    4.10454714144238   14.16793351329973
H         6.37640611504533    3.70803349451670   12.27427007029921
H         5.33854012315023    1.76759194832483   15.64030838651062
H         9.67381329853673    5.65156473983954   13.28039712685288
H         8.16246724869008    0.70723769275205   15.38986231780829
H         7.62648605469409   -1.63217899258665   14.74880065413072
H         6.69069330529420   -3.17351928003224   16.47182110109170
H         6.33527660616383   -2.28736721650611   18.77795189312149
H         6.91166187363378    0.07429390341482   19.26209442560404

