77
CSD_code = QUQTUR | q = 0 | S = 0 | Stoichiometry = C28H38BN7O2Pd | MND = 4
Pd        2.21930837996098    5.22091518355619    5.46758904777052
O         2.96483926861875    3.50059364832466    6.34519879946411
O         5.45226726550670    2.10459334063496    2.61809361978585
N         3.94331149290129    5.90024506431349    4.73618855575453
N         4.01899187532295    6.28473412328091    3.45311202313544
N         1.50604653848770    6.91903357390102    4.67110474265950
N         1.69000050953507    7.11705386542291    3.36047093528898
N         1.36307703569841    4.33311150710470    3.18761820382033
N         2.24137701287736    4.89564445354958    2.32703170281333
N         0.48156573306841    4.68455295782902    6.27758000283967
C         3.73035066073273    2.67805441829322    5.71516653634783
C         4.15860595656323    2.81982703825124    4.42597244287082
C         5.05110733366134    1.92915037252083    3.76522566137586
C         5.53719629677900    0.73533385263748    4.58008327744783
C         4.52780746573712    0.27713733309703    5.63392518218201
C         4.18613722818498    1.47754381063943    6.52118364774016
C         5.13987633698247   -0.83358677546170    6.49238508346332
H         4.43603047418161   -1.15933689028073    7.25624271459377
H         6.04498968067117   -0.48570620497652    6.98659278924847
H         5.39707205634441   -1.69171116261780    5.87516923146203
C         3.26373572669036   -0.25167196548076    4.95285644093935
H         2.53163200409846   -0.56571057821026    5.69524024067969
H         3.50341079841630   -1.10582687416024    4.32303966262847
H         2.81921983079973    0.52056686002076    4.33067379618823
C         5.14130586511828    6.01679698538560    5.29563102672314
C         6.03353196970836    6.48847081539632    4.33147122855848
C         5.28643679764951    6.64374625881333    3.17584059379906
C         5.35958534724240    5.69573382477550    6.73278175007749
H         5.92401774590952    4.76896375117788    6.83151339749426
H         4.38641548095119    5.56857280491907    7.22384088356812
H         5.91677524412387    6.49225045416220    7.22340927240244
C         5.75032062582978    7.11481448607401    1.84612359279668
H         6.79659015893878    7.40145342731270    1.90985798518814
H         5.16659712557737    7.97044795773626    1.51152081571208
H         5.64820208169458    6.32235350601735    1.10768032517762
C         0.65460273181930    7.82866488792793    5.13048714884031
C         0.26030736111909    8.64285437092297    4.06732764006005
C         0.93856682085545    8.15790925798580    2.96002435491535
C         0.30701848151653    7.90443556450163    6.57792533087904
H         0.34482470007131    8.93700635889511    6.91992976967869
H         1.02767131356755    7.31053546614566    7.15154420286920
H        -0.69768939732786    7.52284008983817    6.76364548716101
C         0.88325142767496    8.65106638478381    1.55989738665085
H         1.84164668486214    9.07405804879786    1.26313447634161
H         0.11958310801879    9.41940421353382    1.47378916207845
H         0.65053602833284    7.83562460448599    0.87871130628942
C         1.13940663199209    3.09189427053243    2.76846853489378
C         1.87775325491391    2.84362297364899    1.60854561867280
C         2.57770038159987    4.00968508276154    1.36370172473932
C         0.23058033881633    2.16295626581782    3.50045677005112
H         0.44714824438411    2.19732793884858    4.56844215151356
H         0.37609088519503    1.14688239277775    3.14226020918330
H        -0.81478346901969    2.43736406771940    3.35136945751510
C         3.60175172859056    4.25118817605550    0.31727860823436
H         3.39135413115479    3.63326447430959   -0.55226332240757
H         4.57725408140464    3.95960004391931    0.70914627933855
H         3.63062681753743    5.29625170870788    0.02107091661501
C        -0.64893251603541    4.66513023831089    5.57140528185277
C        -1.86394054648636    4.30000918715607    6.12520489940847
C        -1.91448336540541    3.93912869649960    7.46321473224511
C        -0.73538837864614    3.95699477233378    8.19258659415128
C         0.43833787225676    4.33650304211325    7.56430982910303
B         2.75189359987953    6.32141353750005    2.55660735055734
H         2.98756585736219    6.87619666135322    1.54089998238895
H         3.80925776454392    3.66195705889558    3.84303619358187
H         5.78130602915749   -0.07684264428177    3.89232153166780
H         6.46753986650271    1.03942298158769    5.07108463657374
H         5.07196628896997    1.77172372326373    7.09420768434673
H         3.40298271398303    1.22232160653383    7.23995721019407
H         7.07858060090416    6.68535304887214    4.45653689392329
H        -0.41747014379122    9.47138224706724    4.10070298847836
H         1.92001790852133    1.93547772985792    1.04269992926908
H        -0.56100401698951    4.93614933865458    4.52486775016193
H        -2.75419254574341    4.29623709277036    5.51611673386256
H        -2.84615574491773    3.64896696628540    7.92466560215127
H        -0.72358489236055    3.68040766429448    9.23510340997428
H         1.38146595655820    4.34598518416241    8.10036233994875

