61
CSD_code = QUQXIJ | q = 0 | S = 0 | Stoichiometry = C30H28BrPPd | MND = 5
Pd       -0.04137609053471    5.57669099481175    2.35851690758722
Br        2.33474615861418    6.03618561164866    2.32995925388498
P         0.10287507665137    3.55038705185353    3.35637891152644
C        -1.98670164455512    7.73446046156174    3.13936493916392
C         0.14762342896508    8.45068766495085    0.72831932811026
H        -0.46133890937476    9.34429312739760    0.66439116792687
H         1.18320585851335    8.64223295644709    0.97438771504671
C        -3.24197570220845    8.31680194448417    3.26492801800392
H        -3.98318122316971    8.15931615212015    2.49417582991077
C        -0.14187601878287    7.30174982579239   -0.21989940283986
H        -0.94501727358104    7.40831608154430   -0.93989852775877
H         0.71083666205027    6.74535066613596   -0.59370901014721
C        -0.48813867720440    7.21651455238877    1.21999791091523
C        -3.53639732947397    9.09706273348420    4.36920682758264
H        -4.51375270477698    9.54791268016453    4.46061053003300
C        -2.58479435130265    9.29763187906995    5.35502700659900
H        -2.82046970356409    9.90377392721334    6.21712833162326
C        -1.64341874847871    6.89295840468786    1.96565195613456
C        -1.32994116343396    8.72234796927503    5.23439033509473
H        -0.58538543612307    8.87874974976899    6.00088886547379
C        -2.12841056477805    5.58097640522254    1.81828118383143
H        -2.04092080759626    5.13806971751855    0.81640862930855
C        -3.28373354922517    5.04107309327237    2.61373149454081
H        -3.17393639673131    3.96730849540804    2.77197313337964
H        -4.21377539579821    5.19704029642498    2.06118824036032
H        -3.37468745369027    5.53201829469803    3.58120106292738
C        -1.02757742508415    7.94589651938022    4.13068787135024
H        -0.02733663361738    7.49965212457973    4.03460032667137
C         1.69421582210731    2.73893744106592    3.69487059027164
C         2.52758113613578    3.37683725268673    4.61024745523335
H         2.20286662917759    4.30507840929197    5.06410134448914
C         3.76232859972990    2.83915821187024    4.91370467008441
H         4.41078339018315    3.34080256657266    5.61580115079418
C         4.17160941892439    1.66344601694413    4.30417847709758
H         5.13971247152810    1.24461586641021    4.53570485443518
C         3.34657383433199    1.02969045874967    3.39069891242675
H         3.66931970608381    0.11656352834413    2.91175132901863
C         2.10860664512911    1.56462136110216    3.07968840430423
H         1.47016850710997    1.07287928455110    2.35827382811715
C        -0.66499612806566    2.45101038193239    2.12421008713695
C        -0.31050838007170    2.75189180319958    0.80639510862637
H         0.40093627384048    3.56494509837242    0.61578514404061
C        -0.84624845911884    2.02799967784574   -0.24057138373284
H        -0.56562861148986    2.25563135045921   -1.25858368197045
C        -1.75600432550880    1.01297787733404    0.01970873932921
H        -2.18254992230664    0.44998583919679   -0.79721984808414
C        -2.12619366078864    0.72716331781694    1.32277363625685
H        -2.84388901408980   -0.05584772519309    1.52053631397018
C        -1.58347911524373    1.44232182223259    2.37828247426843
H        -1.88256225848063    1.22373905358354    3.39386138792060
C        -0.75257801197040    3.28432598085981    4.93794577086630
C        -1.38864210085489    4.38189103492496    5.50691041343531
H        -1.35296078021920    5.33901448144664    4.98922173127036
C        -2.03852574023912    4.25842821775766    6.72122893010823
H        -2.53095453329371    5.11333745914014    7.16129010607829
C        -2.04847329686018    3.03593020494492    7.37254958970641
H        -2.55619360620453    2.93405860756692    8.32028952699036
C        -1.39427784769233    1.94491213614803    6.82023592612787
H        -1.39042265911175    0.99863048111832    7.34137908614567
C        -0.73852536736199    2.06593921356810    5.60904371358783
H        -0.20313259700958    1.22592390704564    5.18751737546228

