54
CSD_code = QUQXAD | q = 1 | S = 0 | Stoichiometry = C23H26ClN3Rh(1+) | MND = 8
C         3.05372956451343    4.71168961451528    0.61626522576912
C         1.73720886593939    4.73902650172386    0.16587841683009
H         0.95028671516103    5.11620985923104    0.80065951754943
C         1.49196248365423    4.23138116371875   -1.09073237706615
H         0.48384211118062    4.22560355062719   -1.47439966423870
C         2.51767521475981    3.71014559640070   -1.88711642723778
H         2.27463251287511    3.32360395239220   -2.86421425513559
C         3.82624256768196    3.66784716233906   -1.45241569905752
H         4.61307409401171    3.25577696207246   -2.06356220006660
C         4.08099486573458    4.17432921153294   -0.18629013804863
C         4.90016128188737    4.84962690290517    1.75137310766810
C         5.85951341709485    5.16617949287310    2.79670446951644
C         7.17789896786792    5.49571223865944    2.47940021747052
H         7.50003034242269    5.47851941544064    1.44945782800705
C         8.06663799978099    5.88116405797574    3.46438432837119
H         9.08127565738157    6.13491867241120    3.20340060492028
C         7.64968990617877    5.95045921695531    4.78470781887770
H         8.33878729472056    6.25795712617911    5.55503508531442
C         6.35034421484323    5.61296533880778    5.11976547983914
H         6.03327684439439    5.64844731697625    6.15215399196987
C         5.44909538185288    5.21021746017891    4.14178919378237
C         3.15126166034625    8.18340659858497    3.22584967003947
C         2.76999100645768    7.89502326576874    4.57370382090387
C         1.41927837322858    7.40909941045622    4.57327843836366
C         0.94221456682826    7.44951536388628    3.21640813345700
C         2.01870437131013    7.91461647124874    2.38389152611983
C         1.93065729986518    8.25023358971965    0.93316222227473
H         1.70375706256862    9.31313849404563    0.83503583165071
H         1.14631572574907    7.68713624179442    0.43514029993979
H         2.87132167283451    8.05901894272081    0.42143832314443
C        -0.46975213434164    7.20043476381288    2.81112367290386
H        -1.09810298377237    7.99419402961298    3.21735513874911
H        -0.83003848387152    6.25496771072131    3.21357094116211
H        -0.58372850859585    7.19004447066313    1.73081546464491
C         0.55590928432336    7.14572373309884    5.76316975091661
H        -0.09163811108802    8.00651503527202    5.93485116726659
H         1.14671268425065    6.97834928046987    6.65950511160932
H        -0.07654478334686    6.27632829832752    5.59675306710974
C         3.60942936702351    8.15767455678439    5.77657165220693
H         3.48930280996340    9.20391062894947    6.06220606726039
H         4.66517012179615    7.98872608008395    5.57187462214844
H         3.30386662937078    7.54462623738529    6.62116460011698
C         4.42314666717386    8.83996533932524    2.79937561957910
H         4.31975418645392    9.92212753067958    2.89047421651933
H         4.65629882445904    8.61008255957190    1.76281016011630
H         5.25983597834418    8.52709956238990    3.42035650033314
N         3.60457561996553    5.12344907511155    1.80369301081469
N         5.22821570809048    4.28980833587440    0.55999446603676
H         6.14160834893888    3.95834105410391    0.29481845241263
N         4.12420394219040    4.85152931218677    4.48980410262442
H         3.84627769902263    3.93069338572387    4.13739565481946
H         3.98694335154619    4.86148028362524    5.50097916850118
Cl        1.39904127811911    4.12335993241553    3.58249049404849
Rh        2.60765046085587    6.06429961166957    3.37689410717074

