79
CSD_code = QUQYAC | q = 0 | S = 0 | Stoichiometry = C48H26N4Ni | MND = 4
Ni        5.27875096656331   18.17433623210073    2.86694634504315
N         5.28166991997993   16.62491781089492    1.59437161707793
C         5.57290652208293   16.74557078356234    0.25801470681763
N         5.47348284310999   16.97992840138020    4.24619594806039
C         5.77993107114471   15.45061918733145   -0.31194846185705
H         6.08225432121314   15.26143362493264   -1.32316945667910
N         5.28766318874823   19.65551949337394    4.21881597850049
C         5.53516118968994   14.54664081688628    0.66941872643053
H         5.63887667316560   13.48146585176142    0.61252998719645
N         5.07623050755589   19.40533953604480    1.44493429577766
C         5.20761357254507   15.28693144053547    1.84607868798792
C         5.01433321195134   14.76077650082376    3.14417401238786
C         4.71802547905303   13.37927719536588    3.50322074032519
C         4.93747042646972   12.84914426371128    4.81446452338221
C         4.65823675070692   11.50262885388154    5.06329916889973
H         4.84324565647525   11.10974655127677    6.05191191106756
C         4.13726255600808   10.68283557781217    4.08925684954601
H         3.93070644667782    9.64467434201269    4.30305123982186
C         3.84134374965963   11.21210294022492    2.83819601019817
H         3.37947430396874   10.59047700730948    2.08516742025787
C         4.12108782198723   12.53080153762467    2.56037139433540
H         3.83384732562331   12.93649659477293    1.60330706631977
C         5.25727590961213   15.62966307000898    4.19872959111683
C         5.48586115711508   15.05224644821931    5.46890841647802
C         5.40112599854627   13.73181054754519    5.86203175305095
C         5.74296293170502   13.52674643274692    7.21770021198929
H         5.70686488399290   12.52929149229905    7.63217195399942
C         6.12191757801969   14.56295159268469    8.06253075386768
H         6.35089333120737   14.31490050609037    9.08921343921843
C         6.22384016202623   15.90412104855598    7.62942760650308
C         5.90790983702003   16.07550112197187    6.29669830352296
C         5.85875680116155   17.26152270693581    5.52849088603838
C         6.04969650331434   18.45933796151135    6.20303598244068
C         6.57946553415291   18.35820193389999    7.55750063237846
C         7.13402518091351   19.48995069335923    8.17129628231651
H         7.21755886439815   20.40227028892543    7.60221903889282
C         7.62377733057193   19.45715658459147    9.45717410335371
H         8.04468993648278   20.35046134020707    9.89494455182711
C         7.59172034512080   18.27481767751092   10.18786539074565
H         7.96214587369408   18.25227545907370   11.20196783874392
C         7.12135129895243   17.12654174386854    9.59417371934649
H         7.14111443338643   16.19459135041496   10.13919443972082
C         6.63379096632617   17.12655555635355    8.28449148256980
C         5.58661153463305   19.62400978118647    5.54878484244653
C         5.18557662065406   20.84519641238158    6.17173780421869
H         5.22525779248351   21.05037298964997    7.22286408025278
C         4.66479183105912   21.63383052765505    5.19869388962132
H         4.23743741081321   22.61206050216765    5.29974490872303
C         4.77410623115728   20.90492366267148    3.97339515608146
C         4.47604785839905   21.42614721673110    2.72092146596905
C         3.97767119677056   22.81104575221011    2.61640120139124
C         4.74742805211658   23.88330002853564    3.05724619872541
H         5.72853072712523   23.69690791099034    3.46958833091650
C         4.27078228024427   25.17711474260784    2.94929078378822
H         4.87863625853105   26.00283172669052    3.28957113360291
C         3.01955387475793   25.41533682662018    2.40567618340457
H         2.64741347444835   26.42596417082094    2.32502359830804
C         2.24839816125060   24.35338585764359    1.96299389847233
H         1.27191166050014   24.53433399890304    1.53791163627007
C         2.72525581052596   23.05924698949561    2.06213035046639
H         2.12483395666243   22.22866325992057    1.72037380735092
C         4.69818814407135   20.71452343108075    1.53902282880709
C         4.64883710636033   21.30970452842149    0.23913025310881
H         4.38511458595498   22.32993010026577    0.03996533364513
C         5.02384588281276   20.35257354212962   -0.64388064468193
H         5.10277377042913   20.42838401215563   -1.71068466913927
C         5.27458492860092   19.16597998804334    0.11482914928706
C         5.58519336970217   17.93238832568841   -0.46377477814044
C         5.85604618910483   17.89149987809253   -1.91341094685800
C         6.94384840316231   18.58327149767052   -2.43853109453111
H         7.58764639495011   19.13934760363411   -1.77261656367459
C         7.20642487748800   18.54758749338090   -3.79564779941885
H         8.05707604242595   19.08265401101759   -4.19183948798216
C         6.38145207388850   17.82999738466285   -4.64588732048045
H         6.58582497024375   17.80517332405801   -5.70602939111740
C         5.29139806901927   17.14743114163517   -4.13234042863084
H         4.64111207720332   16.59203996089247   -4.79241003718485
C         5.03014905485260   17.17505780209782   -2.77452408403587
H         4.17251996549614   16.65390351779644   -2.37439467799695

