107
CSD_code = QUQYEG | q = 0 | S = 0 | Stoichiometry = C40H61Cl2N2PRu | MND = 5
Ru       11.43711866773972    4.71691474157714    0.46009563916330
Cl       11.34992256755596    6.54443599344571   -1.02636466190965
Cl       11.46382915110683    2.99747618258838    2.07610430943365
P         9.12946843996843    4.89894930181045    0.91778715477244
N        14.25223833813917    4.11213568383762   -0.35484124984307
N        14.25232111444672    5.48239785777398    1.31441078072607
C        11.24549720884367    3.52330585749268   -0.96893769193733
C        13.46803286608269    4.80084677549730    0.47641490176937
C        15.67769824499669    4.30469533650630   -0.10456668951258
C        15.67867840340885    5.27323652677942    1.07228527706958
C        13.88539498052138    3.24035233950082   -1.41561960956920
C        13.78690068532336    1.86644551195723   -1.17071629563554
C        13.52314838079855    1.02102073230488   -2.23932580486743
C        13.37911946326413    1.50479993071043   -3.53028904751410
C        13.51312776593934    2.86939109099945   -3.75080500824330
C        13.77698850130383    3.75141473856687   -2.71512172324288
C        13.94233527163409    1.31861053027823    0.21248736094186
C        13.10000318641062    0.58274878279154   -4.67800852273494
C        13.92441376811334    5.21585991285904   -2.97921616173143
C        13.91757700989534    6.39085601589624    2.35757431958351
C        13.87381424460564    5.92770035443861    3.67515748416742
C        13.71640714809935    6.85597839394200    4.69587734645724
C        13.60704481890138    8.21357246916937    4.43506174319607
C        13.64111603131276    8.64305935807879    3.11571131799374
C        13.80712406018461    7.75418871989710    2.06397799509878
C        13.99569764074860    4.46936080009039    3.98839225043903
C        13.46732025552680    9.20537591119980    5.54928790289801
C        13.87326225153915    8.24803177637705    0.65387278255385
C         9.04074805934601    5.98134962901404    2.43165757482915
C        10.15464901524718    7.01898151835351    2.25839714935682
C        10.14804321796952    8.01860850236725    3.40802991015800
C        10.28561160830761    7.30137713967557    4.74659926699417
C         9.19447441339537    6.25035855762547    4.90966883933765
C         9.23138507955974    5.24735896929394    3.75867070199514
C         8.16676122712343    3.38655250354145    1.42319674610009
C         8.32436552543431    2.21116015364678    0.46024603381640
C         7.72516336533394    0.95563155752822    1.08987899842499
C         6.25421175496184    1.17330412938031    1.43323210534593
C         6.09263938469092    2.37289628708788    2.36243359705471
C         6.68908786372056    3.62477056642701    1.72088127787978
C         8.17079030349484    5.88233630976245   -0.35141605581741
C         7.90772770424252    5.00799709959310   -1.57748739698979
C         7.47682493049415    5.87723556682856   -2.75426590650592
C         6.21630832562436    6.65599126064197   -2.39048113417537
C         6.45295056465629    7.49688259536282   -1.13984653862591
C         6.89397448843680    6.62490304512500    0.03770246718078
H        11.10460043405464    3.85232383298397   -2.00239227190094
H        11.20201575514511    2.43788849579749   -0.85884192298948
H        16.15292915398289    3.34830864929011    0.13308509918776
H        16.16719355360114    4.71412269114893   -0.99357332876180
H        16.15597870353540    4.85713255890450    1.96453047568871
H        16.16587805052900    6.22582826174785    0.84145781948504
H        13.43169296503036   -0.04021429651934   -2.05595508626713
H        13.41368925298249    3.25347784822146   -4.75614257060199
H        13.69757616178813    0.26021094370578    0.23366450413683
H        13.28162409298461    1.84151694650345    0.90418324546009
H        14.96479408265960    1.43854514583461    0.56969228369634
H        12.21171262579603    0.90730079062238   -5.21765063457667
H        12.94611539705166   -0.43600591729674   -4.33206308184164
H        13.93458353967365    0.58902380386491   -5.37854528592251
H        14.92301355945420    5.56535613697572   -2.71979520162157
H        13.20739907987231    5.77930589325860   -2.38177376410010
H        13.74703447772855    5.43477974605101   -4.02848665675933
H        13.69353787970240    6.50780080968011    5.71932852656968
H        13.55814311673556    9.69943980515466    2.90099979504031
H        13.79223421487414    4.28790424172560    5.04067427302253
H        14.99839531258185    4.10235779468367    3.76914259508485
H        13.29075428116989    3.88480064074642    3.39490950878401
H        14.39947602124490    9.75568018289862    5.67879768556122
H        13.23002576970895    8.70818418571728    6.48629828373455
H        12.68356986325538    9.92667878925623    5.32545515175351
H        13.75560676974614    9.32795903358209    0.62182287619810
H        13.08292738024479    7.79858857716187    0.04969917497423
H        14.82554096481151    7.99237712756215    0.18994943427738
H         8.06909137752242    6.48982088488326    2.45727908938129
H        10.03894984712653    7.55192697925907    1.30869165028069
H        11.13084265557031    6.48834799416120    2.23758389362256
H         9.20677612895502    8.57561751891154    3.38591522585710
H        10.96437662887231    8.73173261407754    3.28099854663489
H        11.25976047797152    6.81224801574651    4.79004364580759
H        10.23520288704693    8.02497270594196    5.56316818425193
H         8.21542011934005    6.73807276497551    4.93227645631995
H         9.32544754508272    5.72302978226667    5.85697584213346
H         8.43847707043930    4.51359520548702    3.91193983166612
H        10.18891866660696    4.71834611586049    3.75857551369117
H         8.67261641024878    3.08473381313710    2.35056921730416
H         7.82797676301446    2.41357758975113   -0.48967778926162
H         9.38566706624033    2.05070248076787    0.26411142404399
H         8.28019044271796    0.71239219480208    1.99830178766379
H         7.82547837454164    0.11434679631044    0.40100822094065
H         5.68983033170097    1.35009281684101    0.51397168382567
H         5.84580026609475    0.27856345219073    1.90769925969832
H         6.60153423060573    2.17019276786695    3.30778725639665
H         5.03445043733413    2.53718852900951    2.57997946161076
H         6.15430256176492    3.82613217325585    0.79106827167582
H         6.55696319679768    4.48229844504204    2.38452036791508
H         8.90552897262534    6.64270474934730   -0.65578401746491
H         8.81797792624665    4.45455734760275   -1.82857899228625
H         7.11483567453894    4.28874280953225   -1.35978028508841
H         7.29111905072978    5.25278677746399   -3.63098347421341
H         8.28199552885959    6.57238679503444   -2.99920692607891
H         5.39678309307677    5.95576250143147   -2.20748600351162
H         5.92276044929556    7.30228948223067   -3.22016393641268
H         5.53898011918634    8.03363654513964   -0.87382421573730
H         7.22900229288729    8.23708677171045   -1.34725318029046
H         7.05851019048758    7.27172329122129    0.90112302056566
H         6.09357345807043    5.92646155185074    0.28349630587223

