117
CSD_code = QURDUC | q = 1 | S = 0 | Stoichiometry = C55H52N5OP2PtS(1+) | MND = 4
Pt        3.47230931051334    0.59949183138220    5.43141346529239
P         5.49053139761306    0.42632059088771    4.28861749730266
P         2.24340331046822    1.42347107431589    3.68392114420802
S         1.68437339871547    0.52809066556288    6.95833613486836
O         1.68419521875401   -2.20140305264615   10.92603015336934
N         4.13740338785958   -0.03763305244707    7.29457579209479
N         2.82479824268244   -0.21337296064446    9.27528361155456
N         9.28990172813721    0.11412665634383    9.36033507177186
N         9.85858826567408    1.23054144382929    9.60029558488709
N        14.71416500741420    1.45046381809657   12.26090141919616
C         3.01504670676644    0.04210318054358    7.97263785728902
C         3.66994932529603   -1.08164495565885   10.07585432411933
H         3.85905561631873   -0.58840210015927   11.03459853021309
H         4.61815092398615   -1.27192005314805    9.57744432188695
C         2.93164973689009   -2.40729024349343   10.31412004144186
H         2.80031100716663   -2.92509281506210    9.35014322696286
H         3.50658757833939   -3.04243283317114   10.98885985754032
C         0.86050798008013   -1.37302495021190   10.14018315868081
H        -0.07136913171084   -1.24972227618126   10.69227015137754
H         0.64998707288466   -1.85299366589280    9.17180239743509
C         1.52988601818510   -0.01597315606901    9.89945920488868
H         0.90219493837556    0.61377290935798    9.26867796036199
H         1.69505490312618    0.48268605198759   10.85981421296052
C         5.41559661560701   -0.02676616135574    7.86605674498128
C         6.36904973792460   -0.97584043946953    7.48883184969070
H         6.09343385882645   -1.76602030259528    6.80631179849288
C         7.64552607582587   -0.91592674561328    7.99362699208102
H         8.38467240181042   -1.64641273300442    7.70424467523404
C         8.02419944038325    0.12329423021945    8.85415517706486
C         7.05421051505649    1.05789190397438    9.25268611865525
H         7.34330431530160    1.83723409450613    9.94115793660174
C         5.77079449389200    0.97797828778733    8.77250646779951
H         5.02937637775233    1.70783389632060    9.06851524721954
C        11.05324072162967    1.20797685530779   10.25184136350099
C        11.65796307722009    0.06001815470902   10.79899370815652
H        11.15055327817447   -0.88648392203609   10.68697404041411
C        12.85337291503213    0.13939882100623   11.45748750332148
H        13.27951272901467   -0.76303390657437   11.86343312369540
C        13.52641851504094    1.37275314480905   11.61134366554866
C        12.91301143195595    2.51995191471170   11.06240963159807
H        13.38369981203266    3.48394792261181   11.15759910615544
C        11.71458772326482    2.43754399191840   10.40579012810378
H        11.25471670624160    3.32320312157304    9.99423405543567
C        15.39021331794553    2.71707425683074   12.40997338906513
H        15.61834580049781    3.15683453076018   11.43537806913976
H        16.32648239577067    2.57048344270753   12.94142474113655
H        14.78180515134481    3.42404494302583   12.98080035628502
C        15.32214452778854    0.27147081084316   12.83039376821437
H        14.67137531038693   -0.18314271564685   13.58226298762950
H        16.25798255686126    0.54065298235470   13.31241076620708
H        15.53914508746571   -0.47136954595493   12.05793421361711
C         6.91247474633251    1.07487960019180    5.21494382199902
C         6.68345082231059    2.21264707993808    5.98334861419695
H         5.67472257395396    2.60684835166408    6.05017882003285
C         7.72511539527579    2.81611319780656    6.66156578835057
H         7.54351274926424    3.69591555869376    7.25989581228675
C         9.00108286327444    2.28216308116643    6.58173591954875
H         9.81265928444428    2.73970160331182    7.12501305834351
C         9.22896297486486    1.14290334849630    5.82791650243005
H        10.22056057792452    0.71915862407970    5.78009597365131
C         8.19113395113614    0.53696426323613    5.14199855900184
H         8.37297576547199   -0.35982214007933    4.56894567973776
C         5.80750250759747   -1.32607584409466    3.93789136761415
C         4.99502628246622   -2.26851080582863    4.56402799107281
H         4.20291060931429   -1.92602883025315    5.22921277774239
C         5.18759569224938   -3.61882524840118    4.33737790667343
H         4.55488421519779   -4.34621391451752    4.82366985757880
C         6.19454062327658   -4.03552104724181    3.48101848658193
H         6.34953826462137   -5.08879088601350    3.30432400005258
C         6.99504858351154   -3.10185292911772    2.84181737907613
H         7.77006473714085   -3.42915339539775    2.16545758015737
C         6.80225061430866   -1.74929891146245    3.06135118859923
H         7.40838139850731   -1.02162600696691    2.54000899755035
C         5.73540566051152    1.20664127989411    2.65866798671953
C         6.41565774091243    2.41401120425237    2.53538308606088
H         6.82001343037505    2.89825245909994    3.41215152013096
C         6.58707414261012    2.98903529590801    1.28936447973095
H         7.12600818843511    3.92004278356933    1.20102380905048
C         6.07714293657013    2.37225592949899    0.15928602570290
H         6.21798124590521    2.82101432566831   -0.81196672321633
C         5.39062173763079    1.17475329434952    0.27772445118768
H         4.99268233096573    0.68762439564590   -0.59980260130627
C         5.21884399078344    0.59351053808931    1.51965279006577
H         4.69561587707702   -0.34762677102980    1.60544334882261
C         1.83178718100494    0.30332129245634    2.32194438258126
C         0.95376565021476    0.68480306727512    1.31135672385347
H         0.50322814713113    1.66762023295732    1.33075016514879
C         0.64589629756637   -0.20769578070228    0.30090895228895
H        -0.03026274877431    0.08673098272679   -0.48742161358980
C         1.19318906345332   -1.48203399770218    0.30355891127743
H         0.94581487272815   -2.17416388065361   -0.48670407700673
C         2.04063893179470   -1.87497768750340    1.32688024784147
H         2.45017006245424   -2.87408720796036    1.34023837873042
C         2.35695085712424   -0.98363621453150    2.33618827969423
H         3.00547051790946   -1.27486761053837    3.15560886465100
C         0.59578904648525    2.00682523946770    4.18040984049431
C         0.27394086998453    3.35177441259467    4.31694594836963
H         1.00790803047769    4.11298377650496    4.09353370835194
C        -0.99463244115582    3.71312091831092    4.73707761934841
H        -1.24491196850695    4.75839440579954    4.84012157251986
C        -1.93825186710820    2.74206422470383    5.02689324163333
H        -2.92433226631147    3.03047110952802    5.35748030511139
C        -1.61734687706811    1.39955111544127    4.89563777731561
H        -2.35165437497243    0.64199257286451    5.12394386378182
C        -0.35464925674827    1.03072417875382    4.47603898451115
H        -0.09229566579244   -0.01470120413473    4.37563488226181
C         3.04383184187020    2.90546920679449    3.01749111333422
C         3.07691682498288    3.28132274191376    1.68277079641246
H         2.63338081839969    2.65076355181214    0.92708207803844
C         3.69636180238417    4.46704880932761    1.32481996370127
H         3.71962521418247    4.76412487047745    0.28740860559039
C         4.28104658149319    5.27262833453229    2.28747827118660
H         4.75622948816757    6.19759443850132    1.99880136618218
C         4.26108656293571    4.89305140509293    3.62117771508472
H         4.72175251291189    5.51941207556488    4.37028668058764
C         3.64525731693626    3.71170995693569    3.98282980680445
H         3.60433962610959    3.39431823763136    5.02324964400592

