51
CSD_code = QURFUE | q = 0 | S = 0 | Stoichiometry = C26H20ClCrO2P | MND = 9
Cr       -1.97463646689980   15.81156215771452    0.61995098931633
C        -1.01085672807544   14.93950474717380    1.88860256356772
O        -0.32933452118128   14.39942784243448    2.65463370038512
C        -0.48866893182480   16.84681416148354    0.67401610608470
O         0.52605215938587   17.41262754907936    0.64750575943678
C        -1.85646127152116   14.20459662868351   -0.90481172632332
H        -1.15000139241227   13.40271802233941   -1.07392605383434
C        -1.70138589406621   15.45191328230329   -1.53694351577892
H        -0.86937129554926   15.60759681686432   -2.21298009764222
C        -2.70636268345383   16.43741366425747   -1.42278372401878
H        -2.61919468251720   17.35856367111082   -1.98608570745301
C        -3.80664416528765   16.21487393893586   -0.60272005361653
H        -4.60491117389574   16.94659129388968   -0.54058898631699
C        -3.97840749540117   14.95786679836981    0.03452403888847
H        -4.89505895223903   14.73325502467485    0.56353383960261
C        -3.01512969011869   13.97168518114967   -0.14203328787379
Cl       -3.24714570881590   12.42106133389085    0.58956279162510
P        -2.94520568497531   17.02705535087125    2.35418934278279
C        -3.26701472833654   18.81369997870987    2.12462518559768
C        -3.93294944006765   19.57062366918648    3.08515487110911
H        -4.28492651187573   19.09696995863008    3.99119153240487
C        -4.13860066231273   20.92187719492575    2.87830905149365
H        -4.65839277748658   21.50731812297810    3.62275892850707
C        -3.67489581265984   21.52793601845137    1.72063279742198
H        -3.83613550338439   22.58436954722769    1.56431489828366
C        -2.99833824274541   20.78162607280798    0.77006623784601
H        -2.62727176651331   21.25724106402008   -0.12598018450830
C        -2.79397514664129   19.42766501787196    0.97222927569166
H        -2.25223758698189   18.82877189635601    0.25122445531103
C        -4.58975222163006   16.36946020211247    2.77616376083193
C        -4.61043237159752   15.08716341893448    3.32655771494848
H        -3.66743497878310   14.60678209738555    3.55782750545581
C        -5.81084180190783   14.44645873891383    3.55994803264385
H        -5.82175643824586   13.45663999759854    3.99208231730244
C        -7.00453233120062   15.07187925487447    3.22645442254359
H        -7.94458859248391   14.57010039651388    3.40226737846323
C        -6.98955976592148   16.33453184257365    2.65889322654566
H        -7.91861428679387   16.81639375926904    2.38984105831575
C        -5.78700037795344   16.98304574163699    2.42835964510212
H        -5.77922287916564   17.96720602411097    1.97989642951372
C        -2.16531982774628   17.12274431445576    4.00916645771430
C        -0.79788686193895   17.38328959637951    4.03676511826888
H        -0.26515565336176   17.48264694810634    3.10148541536931
C        -0.13308724796105   17.49957069187439    5.24282579727817
H         0.92832249562345   17.69640813190421    5.25498306089972
C        -0.82681768667849   17.35693520506618    6.43410997658391
H        -0.30745269627668   17.44031382437671    7.37727048121681
C        -2.18736242743017   17.10365396987908    6.41343860487144
H        -2.73125413321093   16.99168046855180    7.34039836616323
C        -2.85831121200148   16.98995312643108    5.20804727819130
H        -3.92027594544917   16.78691624265088    5.20604492378683

