53
CSD_code = QURGAL | q = 1 | S = 0 | Stoichiometry = C20H22Cl2MnN2O6(1+) | MND = 6
Mn        8.35230990734631   -0.00014095534436    9.31533397914447
Cl        4.92652815597065    5.57274028780480    6.39023416234757
O         7.02029564002843    0.41743153485657    8.14424958152742
C         6.59700841261038    1.58258807196156    7.75420351271265
C         6.66950149370719    2.73358878050318    8.59384813397029
C         6.13558184073935    3.95465039893209    8.16881844539062
C         5.55956354108377    4.06297480041515    6.92097407696471
C         5.48058950412865    2.94650397464564    6.08143174985725
C         5.97687935932586    1.73573664358473    6.49354907726372
N         7.77479483612300    1.53402103228197   10.39653052261361
C         7.22189932250057    2.60705126506497    9.91736088224081
O         7.12466021954868    3.63898814354338   10.75747575929693
C         7.71603764943552    3.25925897344585   11.99922558295235
C         8.12519717926694    1.78810345177733   11.78839293503431
O         9.68724902098115    1.39227496897567    8.23789874864793
C        11.10938991832164    1.29747399742979    8.25319523628141
H         6.18416499712153    4.80535425537376    8.82937274723579
H         5.02106102841472    3.04466106308831    5.11062400922542
H         5.91110579227302    0.86951969916697    5.85290265396848
H         8.56686354972686    3.91774278949587   12.19154184434520
H         6.97280032322265    3.39245442313276   12.78833025388136
H         9.19616034090203    1.61691143406543   11.92333461327328
H         7.57810298962322    1.10458282523675   12.44477858515862
H        11.38926501977406    0.93159328709943    9.24002148556688
H        11.47265098508029    0.60197773807510    7.49182607101668
H        11.55059648092236    2.28427953871538    8.09160785650385
H         9.41612546565944    1.72479434546971    7.37077273358187
O         9.68428935951674   -0.41784469919518   10.48651144805054
C        10.10751847027413   -1.58308506997488   10.87640457683924
C        10.03511390652446   -2.73395325626057   10.03656956241072
C        10.56899913563804   -3.95508248840360   10.46144433600989
C        11.14489402524089   -4.06361273569637   11.70932580255375
Cl       11.77787588229373   -5.57346567564108   12.23988191205481
C        11.22377855456998   -2.94728004403315   12.54906025048916
C        10.72752469830164   -1.73644516137662   12.13709535465400
H        10.79323301351432   -0.87033100255630   12.77788876853228
H        11.68320920563516   -3.04559537800929   13.51989807393413
H        10.52047922505881   -4.80567627057960    9.80074197739139
C         9.48286071551285   -2.60720597529580    8.71302172286629
N         8.92987719332761   -1.53414231549258    8.23403988734053
O         7.01734765405390   -1.39249266960686   10.39307062465256
C         5.59527733163179   -1.29638307053816   10.37897130271409
H         5.31485471481414   -0.93142309647598    9.39194725102375
H         5.23333022551617   -0.59960805042887   11.13983147040333
H         5.15330437798824   -2.28259113297782   10.54217751200432
H         7.28893265667740   -1.72453450210551   11.26027275572115
C         8.57969725507529   -1.78793928472137    6.84207047818669
C         8.98907438948555   -3.25899223570511    6.63094283496390
O         9.58034763515873   -3.63893258934859    7.87267870434444
H         8.13835569447826   -3.91753884775247    6.43836721088396
H         9.73242463616057   -3.39191188853369    5.84189791146972
H         7.50872797283902   -1.61686290065770    6.70702927910729
H         9.12678909687340   -1.10418642742898    6.18592375139537

