85
CSD_code = QURGAN | q = 0 | S = 0 | Stoichiometry = C32H46N2O4Zn | MND = 5
Zn        7.76259803438751   11.47542628093090   14.80527207503735
O         8.53923561320770    9.84523334305220   15.58515035497170
O         8.81746303789962   12.36642714319784   16.25469735175448
O         8.40524807194942   12.64481194506165   13.37102454909323
O         6.91162433412018   10.49377386962355   13.25052805537546
N         5.94306707276905   11.84418591766134   15.62854980285223
N         3.87489731416453   11.39803005465356   16.19168696296660
C         9.42457696794933   10.12651153648135   16.45895406299798
C         9.56457601574245   11.53109766757686   16.85167215548669
C        10.53303546249258   11.87088753029825   17.84635802469316
C        11.29397168139543   10.86102422682153   18.37451793095793
H        12.02335394409933   11.10449326496722   19.12815880831412
C        11.18929832512564    9.50115221203571   17.98695192663323
C        10.26804806256594    9.15425633311217   17.03187101192407
H        10.13494141612637    8.14011765812848   16.69406016306122
C        10.67393331722996   13.32568332928353   18.26600588217142
C         9.32162001882483   13.82264898397466   18.79567798139701
H         8.56373878090855   13.73470964679685   18.02380420092494
H         9.39716470965185   14.86592359063035   19.09563574870454
H         9.01377727255477   13.23378587673060   19.65824580760369
C        11.08346215178443   14.15175555774042   17.03885582882478
H        12.04325836525388   13.80816581631672   16.65751001933884
H        11.17203786242978   15.20266151549677   17.30717846676903
H        10.34154959813711   14.05281698292161   16.25256814846482
C        11.72420440250266   13.53053105655262   19.36152090266448
H        11.46871368551268   12.97430970201225   20.26111795755734
H        11.76880203171269   14.58635450798230   19.62132383512050
H        12.71218579622504   13.22835508636326   19.02125505184441
C        12.10801016554695    8.49164824559560   18.65465526583782
C        13.56780198981507    8.88456783368988   18.38355199793338
H        13.75303871887152    8.91590942592288   17.31218853963377
H        14.23959447735332    8.15426741860767   18.83001129365379
H        13.80342556026106    9.86033312266510   18.79854004795628
C        11.84117709749989    8.49061242318039   20.16711997276504
H        12.04007663924332    9.46304521716396   20.60852956836420
H        12.47804935150531    7.75744586554053   20.65787430048012
H        10.80251155521210    8.23316781985646   20.36308151453468
C        11.89428547546495    7.06881080265410   18.13200371437688
H        10.87881198845968    6.73157313670270   18.32390401947572
H        12.57735106450987    6.38898934479110   18.63773547601189
H        12.09125442126616    7.01340147727094   17.06445934241476
C         8.15445705981330   12.16821297740011   12.21502688430761
C         7.30617489550922   10.97706673787891   12.14288422114270
C         6.99981426677524   10.42949168014166   10.85996026163762
C         7.52051403134639   11.05012441192848    9.75439728159784
H         7.29078797874145   10.65017716256935    8.78144768688996
C         8.35593401424177   12.19419948785903    9.80664646371920
C         8.67220943828643   12.72778600670407   11.03003000498332
H         9.30149028593649   13.59483062501033   11.14084090479639
C         6.11789936766175    9.19249863148637   10.78171341387410
C         6.80969772557415    8.04971665288488   11.53791398966222
H         7.76369747387965    7.81448998108406   11.07011207604678
H         6.18652275778504    7.15740619625760   11.52347481031371
H         6.99189714430128    8.33441194617365   12.56959450064732
C         5.85789554592820    8.73374836231057    9.34415028564498
H         6.78557146589715    8.46704208189325    8.84295683506516
H         5.34913443447911    9.50541757275113    8.77019793286184
H         5.22050580876729    7.85168996245393    9.35948315581954
C         4.76609768402976    9.50585536331697   11.43857925630659
H         4.12560871885790    8.62597342642870   11.41900910110770
H         4.26585263754380   10.31289794185474   10.90591293698076
H         4.91565800103432    9.81000204258279   12.46976404139728
C         8.86201783884492   12.77358956293367    8.49615372539224
C         9.68872909201937   11.70741165214366    7.76215209071013
H        10.08382202659175   12.11537400872302    6.83401704065393
H         9.09053606701226   10.83323535854323    7.52121671278768
H        10.52298319626233   11.38908276101849    8.38328050216363
C         7.66271199668711   13.18913330222582    7.63138701558407
H         7.06107912854575   13.92734025738856    8.15721010271598
H         7.02839557086573   12.34021035469260    7.39247748369731
H         8.01002196344987   13.62711933456184    6.69784067194008
C         9.74842960798155   14.00422248575071    8.70303546175397
H         9.20131105947153   14.79815210704693    9.20499584520581
H        10.07980588505815   14.38036111990276    7.73701222899480
H        10.62946495246492   13.75480307235515    9.28868527781584
C         4.99226101017701   10.93999681666898   15.60896253608505
H         5.10060128686384    9.96476247944828   15.17974853222658
C         4.13856932652040   12.67224862364864   16.60814552382277
H         3.40550169785881   13.26981697213834   17.10958459660587
C         5.42733765300876   12.93503334449765   16.25108385201378
H         6.01483504559370   13.81828984623829   16.39476987285274
C         2.63342919006045   10.69564803604394   16.35384906801898
H         2.71148380901128    9.71573661381196   15.88745683008539
H         1.82016066005457   11.25073855261904   15.88310226077005
H         2.40301934744423   10.56905131662683   17.41342860251397

