68
CSD_code = QURMIZ | q = 1 | S = 0 | Stoichiometry = C25H40P2Rh(1+) | MND = 6
Rh       -9.01409108941297   -5.04197107200972   -3.08562597189172
P        -9.12366698821094   -4.67038461989618   -5.40262328676880
P        -7.11391309225984   -3.76008940744708   -2.72887439194025
C       -10.88921104993435   -4.64599105046389   -6.08650367005572
C       -11.72281306708896   -3.79572497214188   -5.11509487743662
C       -11.02421308202359   -4.07035289995922   -7.49726021755628
C       -11.36952134310337   -6.10416247762157   -6.16582476132541
C        -8.29526105052538   -5.87220976571959   -6.51792349651537
C        -8.37881828799111   -3.10719813173364   -6.08286559293961
C        -8.68296531369060   -1.88126424465407   -5.27367935960407
C        -9.72974301396222   -1.04450793484726   -5.64571885999578
C       -10.05839820173804    0.07761354323484   -4.90858181438393
C        -9.32150108669331    0.39661385955767   -3.78241702045858
C        -8.24371239317441   -0.39396084590397   -3.43161776877205
C        -7.90920898638643   -1.52746592509199   -4.16449988507587
C        -6.68517603725244   -2.30402594753322   -3.78518299699835
C        -5.51560879436538   -4.77015913151348   -2.78869300493285
C        -5.56070683669893   -5.55382361963508   -4.09995264957781
C        -5.47807426003855   -5.77066582238315   -1.63500191122275
C        -4.26752760751415   -3.89287986895545   -2.73100611037578
C        -7.08570299532504   -2.90833460215844   -1.10223242995428
C        -9.90814972883491   -7.01991705430333   -2.81476781892903
C       -10.93730659808385   -6.10328867955181   -2.82933664156468
C       -11.15883614905678   -5.67704872575768   -1.38169830897266
C        -9.88307011950970   -4.89392458201671   -1.10107832883004
C        -8.85771560607671   -5.81899533743498   -1.06942075496114
C        -9.49423595084417   -7.17699040048376   -1.35305106227261
C       -10.85221605444841   -6.99730064177399   -0.65321742070337
H       -11.69438004936836   -2.74906443701844   -5.40548942730257
H       -11.33262591342124   -3.84854899191312   -4.09305518811428
H       -12.76461322419173   -4.11050068165432   -5.11092521701987
H       -10.35374453541185   -4.55548810088676   -8.20391966348262
H       -10.85456173637377   -2.99925953207290   -7.53239790358607
H       -12.04275112212515   -4.24587809835884   -7.84005207254533
H       -12.45688123963336   -6.14631528041621   -6.13815638888441
H       -10.97906013283317   -6.72160539291851   -5.36193307153589
H       -11.05087210296200   -6.55089739569569   -7.10510799156576
H        -8.54426623653479   -5.65512749088172   -7.55500648912900
H        -8.60796998800631   -6.88574132777919   -6.27827158961948
H        -7.21707470484320   -5.80575410699554   -6.39777345465767
H        -8.73735700607824   -2.98638134422789   -7.10590858876967
H        -7.30286593622912   -3.28748010341042   -6.13232334499709
H       -10.28580425530266   -1.25553397263389   -6.54675967540202
H       -10.87838766106576    0.70566964617309   -5.22001227661104
H        -9.56622362119040    1.26945520828651   -3.19788951342388
H        -7.63254890830251   -0.11235953575048   -2.58613069906647
H        -6.15788818764381   -2.64694643851351   -4.67603148997964
H        -6.01025286145414   -1.66597048560738   -3.21051466161352
H        -6.48425698882380   -6.13956651269031   -4.14437620392748
H        -4.71524758933029   -6.23587682976984   -4.16353830505419
H        -5.51808440892354   -4.88758852132739   -4.95963925055599
H        -6.28273941919843   -6.49696524797344   -1.73163492842283
H        -5.54130011670879   -5.27342896534474   -0.66952799177066
H        -4.53692507406639   -6.31733809995803   -1.66124624137179
H        -3.38564793687096   -4.53110434735240   -2.74318261146366
H        -4.23270137096120   -3.30733021732832   -1.81537598416137
H        -4.19512438308569   -3.22192480717356   -3.58233500360759
H        -6.12492459819309   -2.42103422452089   -0.94422830364374
H        -7.28201166763708   -3.58831485341971   -0.27828620537751
H        -7.86718907436603   -2.14844217152047   -1.11851616090920
H        -9.65443446421231   -7.74358182431034   -3.57957498774331
H       -11.70801518268477   -5.99421216416679   -3.57138329077557
H       -12.09757748972971   -5.17864026833750   -1.16023246496775
H        -9.88201792770210   -3.89473255642680   -0.68524682716680
H        -7.92222586608254   -5.72156743832354   -0.54419080864474
H        -8.90584827798991   -8.05500767601255   -1.10351231960047
H       -11.56397376259690   -7.78859732280026   -0.88474545526281
H       -10.76456019388915   -6.88320773098981    0.42648246575577

