85
CSD_code = QURNEW | q = 0 | S = 0 | Stoichiometry = C35H42N4O3Pd | MND = 4
Pd        8.68782745044537   14.89437867270821    3.28493038801387
O        10.15664260224629   12.74866366331971    1.50728447017216
O         9.26344370822232   11.20986233334257    6.93123393243282
O         7.44318056098255   12.41198628843803    2.18781267542181
N         8.92822897423225   14.67344830979198    1.36966340623905
N         8.46080725556079   16.84699971937670    2.97636052613196
N         8.75997208921207   15.14260090267300    5.16368932246340
N         8.66735010228413   13.02352824633689    3.93675393977669
C         9.52764384841964   13.54529516559253    0.83278754172202
C         9.37368984899154   13.61755831044650   -0.64349378322444
C         8.82556859422979   14.81876313393565   -0.91964213882117
C         8.58471599189869   15.49947496279979    0.36777367523983
C         8.19513369321768   16.81370890544326    0.55298982931799
H         7.95796023685673   17.40756476980498   -0.31613393518610
C         8.17687343871484   17.45601488447459    1.80150740709261
C         7.91842122850096   18.85781636237791    2.04378245718531
C         8.06320964030525   19.05953929013922    3.38810183279559
C         8.39770607209737   17.77787827997086    3.97634826980402
C         8.62747428208672   17.53305621763411    5.32851688440817
H         8.64378110897094   18.38709056953309    5.98960339058904
C         8.84427795794952   16.27275446787147    5.89446355944716
C         9.18919550237361   15.90122089400407    7.24755806385911
C         9.33003690890472   14.53360591337770    7.27867184399419
C         9.05767709191040   14.06045529835026    5.94430669200056
C         8.94754913609856   12.83645595669665    5.23219394443091
C         9.02689480115589   11.46125155690043    5.75893465615785
C         8.83001873204868   10.38135241467301    4.76608770385603
C         8.37409268984441   10.65010288680151    3.52325471114312
C         8.12784855324362   12.05073514920137    3.14049930144968
C         9.86516900734774   12.53962861660740   -1.54325115668510
H         9.50133324283543   11.58019432765322   -1.16806502463000
H         9.47993291715086   12.68842172777659   -2.55404167525571
C        11.39552299258968   12.50941104846530   -1.56610680217459
H        11.79058571814295   13.45083163432959   -1.94253158233658
H        11.74760145866910   11.70349606548675   -2.20564992423506
H        11.77509726627060   12.35112476298577   -0.56019541349016
C         8.53469725075716   15.43175450440849   -2.24725168726462
H         7.62017262739309   16.02494152242905   -2.18444662838866
H         8.37620726330880   14.64334136169592   -2.98497262718009
C         9.69360883098601   16.32227214599931   -2.70407485377456
H         9.88550271972446   17.10648411168017   -1.97541078128300
H         9.46189252332373   16.78331646087961   -3.66137677743568
H        10.59968823481710   15.73170433099372   -2.81414688133864
C         7.52629227198515   19.84021162378773    0.99139367235076
H         8.12134980092127   19.67153557440900    0.09078608894722
H         7.73082229640931   20.85389612889109    1.34043341350302
C         6.03964368283226   19.71674697825570    0.64787135976890
H         5.80808306500935   18.70975702858056    0.30909664974508
H         5.77175409839221   20.42046177649684   -0.13697343055891
H         5.43123294915439   19.92791272584361    1.52390152898861
C         7.86806895126282   20.31914627175847    4.16175024515388
H         7.97188183986161   21.17854442917627    3.49710471787304
H         8.63551928896735   20.40023154928241    4.93492191557693
C         6.48383106365310   20.35384655149506    4.81515253622213
H         5.70721285005624   20.31746294438314    4.05514485041412
H         6.36011224194293   21.26677529291629    5.39310049453788
H         6.35179827585455   19.50049577854091    5.47606227282531
C         9.33075977996815   16.87593998797752    8.36822020890344
H         9.88164757686718   17.75319495642161    8.01900138774389
H         9.89929635598940   16.42323825043475    9.18162015896087
C         7.96379231852121   17.31778068130366    8.89805960377674
H         7.37245147876354   17.77109143422233    8.10586474507214
H         8.08495041706718   18.04175307577688    9.70071354424181
H         7.41371853149216   16.46306121733816    9.28385271346810
C         9.68699574957166   13.70359949681642    8.46414979921145
H        10.31343120110120   14.28876971206310    9.14099493490746
H        10.24598647455625   12.82646843935612    8.14108470522031
C         8.43543249719541   13.23253806333068    9.20737934607976
H         7.82076311525252   14.07905616093846    9.50582667154339
H         8.71739806627594   12.67337887974694   10.09577849075259
H         7.84938102441909   12.58162362606511    8.56462295925903
C         9.10428693570286    9.00255752341603    5.29536498263692
H         9.89688764646665    9.07993789708451    6.04211992281446
H         9.44248906973577    8.34364515301132    4.49574521794543
C         7.86482849267916    8.41009240231899    5.96924933672540
H         7.54912106045534    9.04852543776827    6.79052587999515
H         8.09149733172448    7.42325260295955    6.36553357504905
H         7.04500071143772    8.32039188220392    5.26070616646046
C         8.04008951846602    9.64014551601247    2.46860009391095
H         8.41638584412606   10.01827538050626    1.51574779829221
H         8.51529606736419    8.68298789634074    2.68069744963160
C         6.52495765224030    9.45101991853290    2.35006874595988
H         6.10375703272201    9.10547032461819    3.29164229011430
H         6.30167413630936    8.71710744449610    1.57935720022747
H         6.05658708290617   10.39408583771468    2.08310700328920

