73
CSD_code = QUSBUB | q = 1 | S = 0 | Stoichiometry = C24H45N2RuSi(1+) | MND = 9
Ru        9.64308818100312    2.38956672443669   11.30816837696834
Si        8.14801864732978    4.28338421436810   11.30319542097245
N         8.81268482157264    1.91369676666743   13.09109069569987
N        10.37029660991017    3.31885256993383   13.86932538818097
C        11.44142771235949    1.61277421053208   10.26856615789119
C        10.69668629889163    0.46057533595863   10.65573706299634
C         9.39518304118573    0.25537033895188   10.12159653198303
C         8.79920718919926    1.22020844267319    9.28229749499913
C         9.53780815022779    2.39094527032432    8.91995346242691
C        10.88711297112375    2.53859520164395    9.33818482029954
C        12.87677550977635    1.77424158976617   10.70237941249620
C        11.34809968047934   -0.66815699139556   11.41412111025306
C         8.71847178654219   -1.07328574372664   10.32743712772283
C         7.49962466980164    0.87346659196282    8.60165320331384
C         8.96720292990193    3.34722118864890    7.90602922993644
C        11.79594320857347    3.55045314715390    8.68365617399035
C         7.71543725740955    0.94877353403410   13.10588592834722
C         8.02746575778634   -0.30496170748440   13.93681560358766
C         6.35973795948666    1.55701735271162   13.47560147546310
C         9.31175907241987    2.48733098550576   14.15201883562679
C         8.87287172422598    2.32787791212700   15.57295205691248
C        11.21217171311995    3.95623772948532   14.89232732494356
C        12.57674380272962    3.26715696345059   14.92437792020443
C        11.34377083402880    5.45694550187211   14.64700455547593
C        10.66260192546070    3.40263966993866   12.56019209516356
C         6.43772279136986    3.88799380484106   10.47563762444447
C         8.94384906202679    5.78407939824204   10.37384457272788
C         7.63997437490585    5.07577977596658   12.99810356854493
H        13.01669653933585    1.46396222810685   11.73552991982754
H        13.52926679686874    1.16883644486770   10.07117815214261
H        13.19583686903475    2.80933427165953   10.62811759152810
H        10.78920377057906   -0.92396657522216   12.31382909945788
H        11.38542578102415   -1.55522840573674   10.78094307277501
H        12.36353122665935   -0.43324719515444   11.71122508145856
H         8.98183668177352   -1.52423630628048   11.27923478288346
H         7.63614609476160   -0.99806227467923   10.27685309883121
H         9.03783671154451   -1.75494048175904    9.53648297943997
H         6.70512731569033    0.67298360883914    9.31975512262662
H         7.15601083089168    1.65887892570584    7.94022141480011
H         7.64013862875687   -0.02689269032296    8.00213054739654
H         7.90026990450956    3.48408949995064    8.04714548461186
H         9.42546762388860    4.32663137740166    7.98387419208245
H         9.13577296622049    2.95942677938084    6.89975672737280
H        11.94503971847951    4.43004152223360    9.30963945739612
H        12.76834151389343    3.10189328137443    8.49169741496009
H        11.39955312680222    3.87792415288110    7.72841400114738
H         7.63048266972189    0.63456544056039   12.05793372375521
H         7.73711213475532   -0.19778988061081   14.97709203407297
H         7.48075335609364   -1.15262247824867   13.53208546085120
H         9.09146681224507   -0.52971085549671   13.90062205032332
H         6.32126225752882    1.90431059785709   14.50287908268900
H         6.13729784818521    2.39267780633400   12.81936719006770
H         5.59113827606803    0.79910384339080   13.34752085566738
H         8.63828801214407    3.30263373226785   15.99930638840241
H         7.98982024388595    1.70954958468578   15.65010584748070
H         9.65992468894890    1.86762429948456   16.16995117033857
H        10.73116170806165    3.81642464713556   15.86070320915246
H        13.17252449519272    3.66797604284325   15.73905445162211
H        12.46057599493037    2.19626785639394   15.07734529820685
H        13.11699030380114    3.42871933600117   13.99517388238950
H        10.36382421569732    5.92485526724216   14.60217569634331
H        11.89929749977746    5.90502532492575   15.46590216600974
H        11.87173207368737    5.67245169764331   13.72276758506627
H        11.53089547417156    4.03348143333480   12.35212383801840
H         5.63110039353455    4.26629137047815   11.09461585138578
H         6.35323282248266    4.38162329547318    9.51400399044111
H         6.25927827613390    2.82901235730277   10.31961314786901
H         8.92145976336705    6.66462318207892   11.00625961998615
H         9.97916314248623    5.61199102947944   10.09729365052903
H         8.39226646332206    6.02401342050156    9.47223198768135
H         7.18329693661337    4.37337614848017   13.68631126378967
H         8.49190570293490    5.52316155605043   13.49839724660336
H         6.92120865074737    5.86855600184037   12.81648193833367

