75
CSD_code = QUSCAI | q = 1 | S = 0 | Stoichiometry = C25H45N2ORuSi(1+) | MND = 9
Ru       14.94412492509336    2.06513223264980   10.66248712447402
Si       11.91975850377174    0.63965457997808    9.73054092858061
O        15.03183526572004   -0.88315526394137   10.99584584372212
N        15.51445039838267    1.93221353393741    8.69023585077033
N        13.38799804256569    2.54283777422511    8.26739989990813
C        14.51596621836336    4.21968165836976   11.60771907320304
C        14.27121196487059    3.15484511704442   12.52650912647905
C        15.33420632499078    2.26095684618649   12.85195905725374
C        16.64531206547287    2.49466621434698   12.32142381348863
C        16.81567583480657    3.41731701987878   11.27567023330526
C        15.71457475195442    4.24287312456213   10.86747826455771
C        13.53238056617365    5.35784774534603   11.51862812897819
C        12.98043558617310    3.13825865229633   13.30101399583666
C        15.17138990890039    1.24057203631841   13.94866344165216
C        17.82113302286073    1.79072168657035   12.94432920865273
C        18.19636894947836    3.67562721698228   10.73608541372619
C        15.92595009188183    5.29346376565509    9.80628782522344
C        16.81499288834225    1.33117584201912    8.39639008700934
C        17.76058850799395    2.20689862581030    7.55071891393582
C        16.68097787243987   -0.07893230086342    7.81213254838584
C        14.59648409284850    2.22654589819150    7.79595541095160
C        14.83937437389245    2.21175947395018    6.31686906240052
C        12.31539883386156    3.23869413004961    7.55219481163074
C        12.68215309072663    4.70149164725761    7.29093129281911
C        11.81794551788390    2.53866402525074    6.28531833813452
C        13.09744352316893    2.17883131582083    9.65156556917614
C        11.77883552508051    0.11285700670441   11.55834750193568
C        10.14053964072551    1.04568188697409    9.16526455477152
C        12.69071158995048   -0.69674157070970    8.60502635188666
C        14.91665671442794    0.24229886177561   10.79425505718703
H        13.09678829197379    5.54267041795459   12.49760754126262
H        14.02619746483321    6.27301800606402   11.20324627257900
H        12.71465061750986    5.15475044576568   10.82558445428130
H        13.06864875024362    3.78713266362792   14.17448360349801
H        12.14991776941434    3.48695922003439   12.69320713750412
H        12.73173688961238    2.14310089279156   13.65287285386870
H        15.37332893729233    1.70272673062039   14.91647511577034
H        14.16429460885803    0.83418249925660   13.97794787227226
H        15.85498454483310    0.40616561187257   13.81519889197128
H        17.70624410825555    1.76646874784635   14.02594263848441
H        17.90316153184308    0.76193754751407   12.59242232842812
H        18.75342747245109    2.29975056184530   12.72334354680444
H        18.74126384214162    4.30671523735075   11.44099293162447
H        18.75434951821827    2.75126152526188   10.60647339518077
H        18.17971731617338    4.19124094038360    9.78310629266964
H        16.49692555536449    6.13292469490019   10.20622876103758
H        16.47273610357567    4.88681314258708    8.95758464435355
H        14.98081332271900    5.66829290041627    9.42398438629073
H        17.27656018460411    1.21557001358343    9.38772176991445
H        18.76458103975541    2.17060182386334    7.96484277116890
H        17.82991592844916    1.85564453088154    6.52438875331609
H        17.43354917726036    3.24383955874588    7.54218611338119
H        16.07272440521608   -0.69727583761865    8.46852635867629
H        16.22810639889507   -0.06829642250685    6.82552373524999
H        17.66676359519153   -0.52903608240360    7.73363558544324
H        15.88225293654116    2.05430988499865    6.08494940660108
H        14.25832861210850    1.40948814483374    5.86764148772398
H        14.53235887375140    3.14899377283707    5.86399454181060
H        11.48144927186113    3.23570891836558    8.25838275181663
H        12.94011531132145    5.19907567890314    8.22318584924401
H        13.52017620260563    4.80269504208452    6.60743743882861
H        11.82825367490788    5.21439617699839    6.85717415386305
H        11.84800307701482    1.46039337132859    6.41132968877952
H        10.78622547363766    2.83110327267436    6.10723334835800
H        12.38862657803984    2.81356731485712    5.40480387944875
H        12.57952763946535    3.03453631400135   10.11057665766768
H        11.07641856992373    0.73837891490901   12.09963754828754
H        11.41609185153167   -0.90710403830448   11.62461727980845
H        12.73692294951335    0.15489513973608   12.06710674242134
H         9.74089647135166    1.92410261834746    9.66322571960196
H        10.05293732359300    1.19940749473707    8.09598886507220
H         9.49196213288241    0.21418637569990    9.42127818769470
H        12.81340148078172   -1.63016021373073    9.14359754373427
H        12.06721524691364   -0.90675932958049    7.74168748311594
H        13.67257435477865   -0.39601300697024    8.24897694106410

