59
CSD_code = QUSDOX | q = 0 | S = 0 | Stoichiometry = C20H30MoO6P2 | MND = 10
Mo        3.16311409314630    6.29231075833141   23.83952685451737
P         4.37953291338637    8.19702019402793   24.47501091303854
O         3.62542659812026    9.47509208894184   23.84995983449134
C         4.17746378529404   10.78284729251846   23.97399343033241
H         3.80920216691564   11.25891916818950   24.88328969115927
H         3.85181185581747   11.35109089077543   23.10229289402015
H         5.26705267632820   10.74422517797192   24.00702311385667
O         5.90597342874973    8.37558824044495   23.92326544975314
C         6.30841885495714    7.97667383300443   22.63331025134204
H         5.78799397203691    7.06623984174035   22.32692247170965
H         7.38273178453813    7.78871184681933   22.67327283791567
H         6.10966235132710    8.76956479935650   21.90760455808165
O         4.69238529695607    8.80663605382346   25.92394462299314
C         5.54148435289609    8.16229892816253   26.85745790597135
H         4.98519766193025    7.40128879060031   27.40560308940758
H         5.88501209430773    8.93437650495088   27.54728252553790
H         6.40122309414250    7.71135715845564   26.36074580716975
P         1.86285136870577    6.69152891687627   25.73674828972156
O         1.02543979726751    5.48723703994124   26.39334598476465
C         0.08387493427569    4.75557787087725   25.63725416173446
H        -0.77218058215849    5.38141015512431   25.37889262594810
H        -0.24685766291719    3.92697068163337   26.26453115913909
H         0.53833708674393    4.36550113919468   24.72315137247966
O         2.64334284721442    7.15344712634747   27.06132656977971
C         1.94901760531219    7.37311049477321   28.28722736178106
H         0.90172501031589    7.61782271743022   28.10433368431701
H         2.44153153731630    8.20428209136531   28.79348782071098
H         2.00167997489720    6.47721119167972   28.90749060910110
O         0.59349182346440    7.70012064511913   25.64147674735961
C         0.68254578140726    9.03162733432372   25.17645852146089
H         0.62266432199884    9.71728495774696   26.02510642314453
H        -0.16290618276194    9.21112206583238   24.50894710720052
H         1.61918735455672    9.19656982415722   24.64699693111791
C         1.25823019315221    6.12624858246068   22.58421856824770
H         0.23240576857744    5.99443738636398   22.90147537564536
C         2.09893347769144    5.11236559061722   22.07433219716367
H         1.85708764133825    4.06157511324686   22.01180810002248
C         3.24151503051369    5.71642256236750   21.53226979840153
H         4.02168774259432    5.20490742464987   20.98771135025561
C         3.12584183337863    7.11321265284844   21.70784214876497
H         3.74378110885111    7.86275411418784   21.23176578699623
C         1.87895279339865    7.37997903214167   22.34110094998578
H         1.39193158404720    8.34535248698571   22.37838489799749
C         4.35875552479801    5.14329624832070   25.27622420815506
H         4.57888262362908    5.37657639628378   26.31221193425270
C         3.36902602978576    4.21678341887225   24.82142731820158
H         2.67394708508862    3.75431697316565   25.51327806679986
C         3.95788495143706    3.43430621741217   23.74136555806560
C         3.58099717090668    2.25777964984296   23.12848370573296
H         2.69685332034532    1.72060710811840   23.44614309958119
C         4.37311276283691    1.76293934675555   22.09469915708411
H         4.09869350664403    0.83546549435071   21.61208003420885
C         5.50952393224095    2.43624083030065   21.68402955246250
H         6.11142830889615    2.02910520840094   20.88366232272183
C         5.89710320739450    3.62690390750532   22.29459627347860
H         6.79027217541105    4.14461056706672   21.96991903873025
C         5.12195702161995    4.12015576829815   23.32360503739693
C         5.23674399950453    5.30681519470779   24.16084580364606
H         6.19481920941111    5.80547690416834   24.27123809492499

