86
CSD_code = QUSDUF | q = 0 | S = 0 | Stoichiometry = C50H31N3OPd | MND = 4
C        -0.43592226697816   16.88451761851380   11.77060174174267
C        -1.64061603040772   17.18110176988106   12.45013111190735
C        -2.88618330723545   17.31805784431398   11.83209756726488
H        -2.88808729972855   17.17930566127245   10.75978820749930
C        -4.10439477766742   17.65130662503758   12.39251076481636
H        -4.91989748870516   17.76815338170966   11.68847059343881
C        -4.43768345826070   17.84223908247950   13.72804954317503
H        -5.46813130784420   18.10878363766066   13.92533303034697
C        -1.36114623358234   17.20763007067292   13.87747211893099
C        -2.28380707276862   17.36260896544031   14.91418293131495
H        -1.88182204831194   17.25229964960186   15.91188337782275
C        -3.62712484024449   17.68168789155858   14.84441330423247
H        -4.11941928897227   17.81693022304226   15.80027662601723
C         0.01566272056487   16.93508344400879   14.06225326620427
C         0.76404286065137   16.88879219651472   15.26026400988876
C         0.38863292410845   17.75789355006858   16.38326982737091
C         0.16962405189026   19.11577126395185   16.14946597178546
H         0.28915537002055   19.50113441791340   15.14762492016468
C        -0.17794352451655   19.95853593226955   17.18716901679628
H        -0.33626896018550   21.00957429847266   16.99522670967819
C        -0.32420312783323   19.45898653406489   18.47144779102261
H        -0.59949279916008   20.11795878604313   19.28146208665856
C        -0.12064644298647   18.11012656896645   18.71203402750606
H        -0.24322642342447   17.71476523929953   19.70991969259997
C         0.23600364993349   17.26406609835370   17.67833952613320
H         0.36989541382337   16.20794882814677   17.86217240888105
C         1.84777042907911   16.02003881367204   15.40332993514663
C         2.69451486735102   15.92001663862018   16.55605021374956
H         2.75531849678286   16.64954271511908   17.34010279589064
C         3.39185014494380   14.76015721668056   16.44681957093138
H         4.11842756838348   14.36098833843696   17.12729836775870
C         2.99008935245362   14.14558162879024   15.21518281541038
C         3.35763080286271   12.85645958040599   14.78067610587710
C         4.14540399945866   12.01946675678227   15.70662534123836
C         3.65605466292438   11.71537945431222   16.97426525053928
H         2.68360123679204   12.08362971483708   17.26747519117993
C         4.39634353395164   10.93587846966617   17.84384731666972
H         4.00301722060403   10.70171133696788   18.82244229258547
C         5.63799377807556   10.45464035652764   17.46304715458687
H         6.21670759369490    9.84837405073433   18.14415389864116
C         6.13494365601251   10.75557015324387   16.20588599619023
H         7.10531254140216   10.38727335642905   15.90611061046142
C         5.39429149012066   11.53053964737372   15.33241691620200
H         5.78718397310274   11.77714958348004   14.35677072590862
C         3.03628445121938   12.34639209059842   13.52700108248529
C         3.36272040954949   11.02021911049046   13.06760762240946
H         3.75709336596900   10.23916790876750   13.68784531807968
C         3.07280647362304   10.96912955972501   11.74842972996982
H         3.18381229877869   10.13804886960377   11.07977230633284
C         2.56681673036466   12.26460366833521   11.37100857771315
C         2.34101620920360   12.68272754159830   10.06377682564247
C         2.66316882198709   11.76252493818975    8.95560301638412
C         3.94772610941394   11.24687162297492    8.80590608005744
H         4.71806017034333   11.53567683695079    9.50603724514372
C         4.24256130323578   10.39087611673097    7.76058655429449
H         5.24440568102854   10.00150934961990    7.65196107665691
C         3.25938861870645   10.03544031840146    6.85232478149275
H         3.49048380450107    9.36583710474183    6.03710965098812
C         1.97886232906636   10.54419747935756    6.99253771804994
H         1.20768005271418   10.26882289570914    6.28782176243534
C         1.68272744815054   11.40397213199518    8.03397290802583
H         0.68197719242495   11.79453638577119    8.14900351538379
C         1.83664372822749   13.95527481718801    9.72842786801507
C         1.72342767450296   14.48423585705020    8.40022654039033
H         2.11476147508326   14.01953204134595    7.51632832452925
C         1.05761229869979   15.66304864856046    8.49897865720324
H         0.81376243057454   16.34576532027492    7.70844243521499
C         0.73549435861859   15.85728737894026    9.88297592651061
C        -0.20006597763128   16.76489348901537   10.38111143949720
C        -0.96324674059946   17.59893060877115    9.44315092211267
C        -1.61285836012029   17.06025513979197    8.33315041093308
H        -1.58463106394782   15.99291536602792    8.16841499056092
C        -2.31908857188283   17.87853647811727    7.47102224543102
H        -2.82419852359012   17.44911704339658    6.61804736377018
C        -2.38317190765324   19.24335488879631    7.69914987956724
H        -2.93195848084292   19.88035078037720    7.02150315008478
C        -1.74473356208974   19.78726045697692    8.80220446483158
H        -1.79285094844126   20.85081615596045    8.98428220164910
C        -1.04559219607840   18.97276265431778    9.67156562925929
H        -0.54217852243530   19.39225481927508   10.53009274195014
C         0.63713791517239   16.75331035650106   12.75262842165405
N         2.11330494400319   14.95265261870830   14.57115925906162
N         2.47459787639543   13.04359804370841   12.49214996005458
N         1.29767011353658   14.82890555599576   10.61179363660431
O         1.87390146338501   16.91739461867815   12.50343481461164
Pd        1.73381346666357   14.86483554132775   12.58709227279194

