106
CSD_code = QUSLUN | q = 0 | S = 0 | Stoichiometry = C55H45Br2ClN2Ni | MND = 4
Br      -16.57101632569969   -2.96652164170951   -1.27941563250025
Br      -17.48717179069780   -1.96769663891006   -4.21194735938103
Ni      -16.87413164698551   -1.02277262572107   -2.29780680662931
Cl      -18.15668225194575    2.65383840668755   -4.44397343546907
C       -16.16342681769457    3.45003507347021   -0.80925784800963
N       -16.32836567686667    0.72331796993204   -3.08966461798627
C       -15.44164495368376    1.44080656977667   -7.11004013401165
C       -16.26685743640373    1.61559879992365   -2.16569440405551
C       -14.64955135818068    0.58867788722905   -6.35060253471521
H       -13.80206643457024    0.10075507598588   -6.80836395680364
C       -13.95610405006182    2.74558517407287   -8.59019116218353
C       -18.88682301806561   -1.34605774706129    2.86989519024824
C       -15.86056764270860    3.01057357983974   -2.12128616469061
C       -13.08350254385370   -1.36046185128367   -4.92350491266591
C       -16.79833122735003    1.86009892453607   -5.17856463510732
C       -14.92264437289048    0.34968828012962   -5.01774590703133
C       -19.55156698980151   -1.84118855673233    4.11704905881211
H       -20.61037697667947   -1.59346244110539    4.11874450128065
H       -19.08545305041034   -1.41508831894556    5.00275964560154
H       -19.45868279134350   -2.92576719547260    4.17705567313189
C       -19.60345158836589   -1.20807276789078    1.69149515469037
H       -20.65467507291986   -1.45651923698447    1.67032416251517
C       -17.10019698753850    2.73650366541465    1.28733987424639
H       -17.54757078228734    2.00106502176671    1.93909379139671
C       -13.95329863802188    3.84012262043524   -7.73344898414647
H       -14.75444731152117    3.96052275960154   -7.01817743226603
C       -13.41653470055145   -0.07400682722589   -1.74442586353646
H       -13.82181751786336   -1.04518418443026   -1.48598677040401
C       -16.72344763741194    2.43165520462136    0.00180338604068
C       -16.73120044071071    1.23447481798608   -0.82722981706126
C       -14.06235189828627   -0.52463959958569   -4.13317503875269
H       -14.73731887084170   -1.23580568321123   -3.61471533787745
C       -16.89308767616443    4.04979966764483    1.74771580329742
H       -17.18965250671867    4.28517325168550    2.75925625822614
C       -16.40348102203544    3.34610098264295   -9.97652207955736
H       -15.62244988066261    4.08473152324156   -9.87026307127800
C       -15.94176212781073    4.75536243777367   -0.36195642268842
C       -17.63698899866360   -0.44062825895483    0.56229042156792
C       -16.00810955162290    1.00202942321315   -4.41571496139773
C       -19.78094043242444   -0.63928152644255   -0.74811632887615
H       -19.14723329670220   -0.92176431161313   -1.61254114971870
H       -20.62465145824556   -1.33115308658840   -0.72618499950639
C       -14.62175516133796   -0.72197437294560    2.92880785190519
H       -14.75983312688513   -1.76677434174189    3.19465177674738
H       -14.93997555716830   -0.09575349385659    3.75981807995915
H       -13.55906709126572   -0.55202209457443    2.76790922288232
C       -12.89268812282618    1.58429924709880   -3.39076060472638
H       -12.89082354863929    1.91412003943285   -4.42095711835145
C       -15.39046890059902   -0.38412332638925    1.65921809685946
H       -15.00224315777038   -0.99850829543916    0.84019859461440
H       -15.20068083724039    0.66321567741361    1.39842497619433
C       -11.91334221247035    4.63820403319472   -8.71301563956938
H       -11.12181974717376    5.37138644420949   -8.75967421931622
C       -15.05328078778071    5.21148694171926   -2.56458885189317
H       -14.60971482440041    5.90653381890504   -3.26237383070292
C       -12.92351728398433    2.61365419693130   -9.50938808711180
H       -12.91582101799103    1.76973445899680  -10.18451209071635
C       -13.42727995861933    0.34119125445310   -3.06980342966979
C       -12.89269959408434    0.74175609838487   -0.75704089370905
H       -12.88364589848094    0.40675251353296    0.26927180755065
C       -16.87642779428100   -0.62084432841251    1.72501702020508
C       -12.71969967592041   -3.26061145046481   -6.35488520200134
H       -13.10915452204267   -4.12171771234235   -6.87693688362240
C       -16.27123974341956    2.10375024978087   -9.37455983719465
C       -16.32879219516644    5.03127483999726    0.96908009757525
H       -16.18191315186054    6.02403130780980    1.36847854310333
C       -10.88160300461110   -1.84856151940859   -5.75442971991197
H        -9.83075750243362   -1.60287917970967   -5.80711468328804
C       -12.93865014504201    4.77851681446275   -7.79336472057764
H       -12.94939226049216    5.62469543854845   -7.12124677658865
C       -17.52597551512250   -1.06532184430412    2.86327597770399
H       -16.96582939052625   -1.21253475130766    3.77253942940068
C       -15.06311437141727    1.71474512771563   -8.54642967316986
H       -14.66648404020386    0.78261602682272   -8.96785511295089
C       -11.37169338053091   -2.95038748216657   -6.43256856364439
H       -10.70485984711097   -3.56778832480674   -7.01628600693844
C       -11.91002720888988    3.55363339184320   -9.57287529697654
H       -11.11509238289001    3.43801841484981  -10.29481560427555
C       -20.29927225133379    0.78438377428060   -0.95404363764891
H       -20.86671123512514    0.84836857991454   -1.87976630472788
H       -19.48002053034087    1.50091788492598   -1.00632606612167
H       -20.94749857545199    1.07186442758712   -0.12822338377777
C       -15.29808885786788    3.89877655420155   -3.00478506331264
H       -15.04203547521169    3.61388169117173   -4.01346744998087
C       -12.37493414093514    2.40215927629768   -2.40256895196734
H       -11.96934225250019    3.36898808603886   -2.66364533225907
C       -11.73269094105740   -1.05516053316880   -5.00330876359057
H       -11.33692487363783   -0.20022840782112   -4.47452012127216
C       -18.54285294914710    2.71317153093082  -10.86562230438090
H       -19.42313137711779    2.95084705460758  -11.44435068405474
C       -13.57072945160427   -2.47202423290244   -5.60385213683416
H       -14.62150404394117   -2.71601397454807   -5.54337592078689
C       -18.99511028337360   -0.77286264066192    0.52660723639565
C       -18.41796827199896    1.47036406138333  -10.26592439220467
H       -19.20123669476392    0.73491926257631  -10.37414271187293
C       -17.28981275186571    1.16803070918583   -9.52757421888800
H       -17.19616349197267    0.20036774558012   -9.05548955346671
C       -15.36209414693425    5.64212117513824   -1.29685897927558
H       -15.16570841247903    6.66379250983984   -1.00635220889507
C       -12.38042242135010    1.98602807594155   -1.08227737503428
H       -11.98330119710963    2.62806669375333   -0.30967639356822
C       -17.53357745223170    3.64742959055515  -10.71931683925096
H       -17.62305865181651    4.61860525128027  -11.18410848591927
N       -17.05106359700245    0.00517200863714   -0.63193397842287
C       -16.52346837610125    2.07510757763826   -6.51522588352002
H       -17.15677858171798    2.73406783164396   -7.08858387592267

