58
CSD_code = QUSMOI | q = 0 | S = 0 | Stoichiometry = C29H20AuF5N2O | MND = 2
Au       10.78262390254173    3.13214946751345    3.88311489119994
C        12.03645622761799    2.75511555392842    2.35270246050406
C        11.91938618105518    1.62764543626231    1.54780022091941
C        12.76694839781243    1.33756882483517    0.48576911121227
C        13.80441486675318    2.21184343730458    0.18813645117694
C        13.96763891405377    3.35461559737651    0.96057953149724
C        13.09030820600341    3.59500176021380    2.01110457703608
C         9.59695543487804    3.42772332015839    5.32985248764202
C         8.01259933804391    3.61038964140677    7.27515862710914
C         7.04720165569434    2.62530595971920    7.46665304070057
H         6.98284057425633    1.79937889114586    6.77478973651268
C         6.18199617546836    2.70664509581626    8.53883366564146
H         5.44490823485832    1.93158140335959    8.67371902057697
C         6.27470479109772    3.77269474510238    9.43542752685754
C         7.24657272178147    4.76195128589811    9.22705095208288
H         7.29694816448420    5.58261399393425    9.92467443738571
C         8.10864383143311    4.68705669027979    8.16077237806912
H         8.85636493277603    5.44804385043425    7.99990936231021
C         4.39895490563997    3.07462060493235   10.74471188276973
H         4.76047635476021    2.05846577561783   10.95110751942791
H         3.75491789726768    3.03856392288495    9.85652631407503
C         3.62078233935842    3.60075156536013   11.95182078036188
H         4.22414897557601    3.44600656672702   12.84731678615110
H         2.70533214011892    3.01515729892279   12.05030312584376
C         3.29588853675770    5.09015487914700   11.84440412044079
H         2.83623514511741    5.42285221736616   12.77693671908738
H         4.22707633844068    5.64372653227769   11.71470500295549
C         2.35814396142272    5.43734444693715   10.68130401626729
H         2.74373011569202    5.02703544980135    9.74429555557961
H         1.36377553237287    5.01708635292991   10.85393670600987
C         3.15373175565569    7.64695633790203    9.85516606069326
C         2.78334014451979    9.00655556948703    9.98620710006241
C         1.59970563827650    9.02582484120594   10.79852666530658
C         1.31305054428471    7.67717834509973   11.11971266428519
C         0.22472732136664    7.34902240295084   11.91589749049517
H         0.00085268373592    6.32439276850737   12.17388837105964
C        -0.57235270252290    8.37843026754261   12.37853441323777
H        -1.42488088146850    8.14758614714596   13.00044153723100
C        -0.30001178873203    9.70772464999372   12.06298483171661
H        -0.94752776653343   10.48318686192172   12.44425056589854
C         0.78291314970992   10.04272194061562   11.27504819987125
H         0.99471999679492   11.07310272698299   11.03220279645658
C         4.28050719054214    7.27918976364232    9.13254615274970
H         4.57833758531698    6.24619101728829    9.03146788637338
C         5.02557065176833    8.28183142068864    8.54193226308182
H         5.90704258712046    8.01957312286696    7.97435867952730
C         4.66549617553643    9.62222381074893    8.66222326308189
H         5.27425068487899   10.37634782565862    8.18606465561278
C         3.54752601526018    9.99568419276771    9.38140243214559
H         3.27128859121103   11.03495873060257    9.47654896106054
F        10.92282424128458    0.75154022135345    1.80527954311454
F        12.59530539032999    0.22815030561662   -0.25067452401736
F        14.63719541897758    1.95570567615041   -0.83066709052704
F        14.96560969897603    4.20963082144405    0.68629627724777
F        13.28373179512636    4.71697394272969    2.73824846195567
N         8.86507073548002    3.51594361730988    6.22783682932036
N         2.24461205287878    6.85999669275161   10.52321377638289
O         5.49108829709626    3.94648541141473   10.51444472922256

