37
CSD_code = QUSNEX | q = 0 | S = 0 | Stoichiometry = C12H14BN4O3ReS2 | MND = 5
Re        3.13377119574403    1.83124671099843    2.80429760047635
S         5.16308642540735    1.20327594438038    1.51291762642467
S         3.41553031881121    4.21934363912938    1.82554362755036
O         1.18265712214963    1.07984264070672    0.54070457256936
O         1.08486118103795    3.26310929136761    4.61674451541869
O         3.12625014803037   -0.94442676201224    4.16482098547201
N         6.41678573295031    3.28879082791740    2.83746952667549
N         7.21885538402262    2.74663694353137    0.86763675257402
N         4.87815985979931    4.78271068834442    4.07296102609751
N         3.59205547599963    6.41018507670303    3.35872127447646
C         1.86038437479072    1.33416461981536    1.42558903208401
C         1.80010145757571    2.66339088932947    3.94607895644514
C         3.09778512405355    0.08377210641446    3.66123245601567
C         6.25583722537371    2.47271768862939    1.78118623747816
C         7.99660197991499    3.76058068732483    1.35997183683632
H         8.82476449456268    4.15883141980556    0.81167281155271
C         7.49390231256854    4.09118398736174    2.57147571084249
H         7.81049737632661    4.84100249864912    3.26599379598531
C         7.37348097166152    2.07109311332730   -0.38767345564763
H         8.00951753817287    2.66540669033553   -1.04021797089433
H         6.39360973060522    1.93447901671425   -0.84830709533792
H         7.81966286856219    1.08473619534812   -0.24056419699613
C         3.97632001109001    5.13203661132256    3.14084425208244
C         5.05483946486512    5.85899313803093    4.89627537684752
H         5.72123002727737    5.81873351364518    5.73142040715664
C         4.26672505531268    6.87010758429444    4.46035906379747
H         4.12602404585424    7.86186467218022    4.83641154998573
C         2.63374689281063    7.13611047700940    2.57741598062541
H         2.02694702293374    7.76195289109018    3.22981836351650
H         1.99811642869775    6.42030319957496    2.05560546712642
H         3.13345672717018    7.76409549370574    1.83640141185609
C         6.49998406463471    3.22830926402312    5.44859776660320
H         5.91493114705403    3.31530973160894    6.36170711651325
H         7.30467517829322    3.96045118212478    5.50060944406750
H         6.96558594631554    2.24483455942169    5.46473049700820
B         5.57792196471968    3.40162379254878    4.13835486290053
H         4.68393772492030    2.53249997540340    4.11519281387893

