19
CSD_code = QUSPOK | q = -1 | S = 0 | Stoichiometry = C5H6BCl3NO2Pt(1-) | MND = 4
Pt        2.29924142126497   10.38362497036773    6.65460318312095
Cl        1.51619785366451   10.57596281495565    8.82653139143508
Cl        2.98814141910457   10.09549299746261    4.46182722171565
Cl        3.81130285637162   12.01629065918720    6.98611666668142
B        -1.94821710158846    5.80814573863017    5.72519088264545
N         0.99742904677881    8.98318239390544    6.36968858925916
O        -1.50643335681775    4.55297941767465    5.43009303322887
H        -2.17821001319776    3.88395980071002    5.29317199543544
O        -3.27360295538184    6.10948534335950    5.82539928143858
H        -3.88847304015858    5.38980028568190    5.67849314744358
C        -0.31530941538341    9.21711357441561    6.50747058113171
H        -0.59208599372721   10.22308969194297    6.79669612872905
C        -1.26926083813243    8.24532466328332    6.31120138094434
H        -2.31450362640754    8.48332311311215    6.43231638459936
C        -0.89667469051238    6.94245348918899    5.95589867446612
C         0.48003958389300    6.72142878084444    5.82022130958513
H         0.83471665767420    5.73949455743463    5.54853074729362
C         1.37691309269448    7.74370742052298    6.02827459664819
H         2.44178909986179    7.58684028732041    5.91127480419832

