92
CSD_code = QUSREB | q = 0 | S = 0 | Stoichiometry = C38H50CuN3 | MND = 3
Cu        3.47520151171608    1.46129888001683   12.15649938296303
N         2.75918607192874    2.50998016399954   13.56565137104319
N         2.80818121506004   -0.20181858707276   12.79975785738903
N         4.77153397977686    1.48040174258720    9.51902409810373
C         1.49415867290479    3.01864646573039   15.57739808964002
H         2.32601889138992    3.53680810532557   16.05314125856610
H         0.90865897166415    2.51240958585754   16.33950408647615
H         0.87334054729828    3.77346011601904   15.09588334718380
C         2.01115431602403    2.04696972600845   14.55007957951940
C         1.67414076326887    0.70160013379545   14.69281724194983
H         1.05346776348084    0.44958286227799   15.53925205681136
C         2.05926328806590   -0.35771356931473   13.87092302435643
C         1.59644962659617   -1.74477524292426   14.23102828426248
H         1.02639840525186   -2.17221678972241   13.40663278952926
H         0.97736877252603   -1.73539073683884   15.12346181481927
H         2.45673368804018   -2.39140763994839   14.40177195202486
C         3.07667364919085    3.88389188890878   13.49621917483971
C         2.24961416780040    4.75524131456782   12.77439715432907
C         2.61451366649308    6.08801649996207   12.66408926895142
H         1.99124054756617    6.76882164079397   12.10377619689688
C         3.76867473588608    6.56087439390019   13.25947932835330
H         4.03727302153640    7.60340364656047   13.16855006313771
C         4.58447634539598    5.69378599520914   13.96092091278871
H         5.49304576228696    6.06744010227238   14.40933937352093
C         4.25453151187483    4.35373979511782   14.09270495859161
C         1.01473776972323    4.23355595979632   12.07444509841169
H         0.80767522618826    3.22365008694552   12.44342091194864
C        -0.21801712542442    5.09833129114358   12.33927093689032
H        -1.10447038816168    4.61677067697517   11.93115226494444
H        -0.12143060758912    6.07610174699357   11.87400430668568
H        -0.36631545740791    5.24181890634733   13.40791878788882
C         1.29529713276715    4.13139532402953   10.57286196996236
H         0.43178677892991    3.72425531503296   10.05050059584783
H         2.14700057923678    3.47450650538483   10.40343178618854
H         1.52461121092294    5.11062099857531   10.15784581053221
C         5.17924358351859    3.40238740862453   14.81814426958029
H         4.67038207691667    2.43893191496905   14.92613321567792
C         5.54639736236651    3.90488179393014   16.21493221244761
H         4.65121149095368    4.12454676060778   16.79378630420187
H         6.14820376026144    4.80874640928320   16.16213587326641
H         6.11992665130250    3.14682597588031   16.74470224941210
C         6.43638718083982    3.17454254081727   13.97504465309307
H         7.09179565525229    2.45227901720724   14.45754698929798
H         6.98351431718106    4.10518639409473   13.84139642353299
H         6.16078059061001    2.79238981529043   12.99360109501682
C         3.20434080454522   -1.29521014036910   12.00702459327621
C         2.44087014900589   -1.66306163535738   10.89002778899131
C         2.91128917412941   -2.66562515274007   10.05618978036822
H         2.33813144402570   -2.94928512614707    9.18607346928469
C         4.10675165226651   -3.30750349817090   10.31861155354672
H         4.46102227445224   -4.08545450243369    9.65810825688252
C         4.85040045553452   -2.94597642685880   11.42656093320675
H         5.78670518763602   -3.44713628478424   11.62269850056983
C         4.41443521191303   -1.94775981732223   12.28438725721324
C         1.14347221952550   -0.95258232437962   10.57614978104381
H         0.89862637985092   -0.29394530194591   11.41593568947845
C         1.31425573532108   -0.07638296024153    9.33288089774262
H         0.38399055706367    0.43972983262654    9.10347057501894
H         1.60019959700926   -0.67738270359553    8.47222603952603
H         2.08926873517109    0.66645974999960    9.50982052834478
C        -0.01249258783542   -1.93690700805261   10.38839872750500
H        -0.95094006279679   -1.39513324133912   10.28869940625201
H        -0.09202004944763   -2.60727297899676   11.24218236438256
H         0.12735783817421   -2.53988758837546    9.49467403688240
C         5.25451256641828   -1.53568800818540   13.47238734030747
H         4.66424974467920   -0.85502996986028   14.09417661121170
C         5.65978242507069   -2.73401071414731   14.33204944895971
H         6.14919323746521   -2.39134030730208   15.24153385051810
H         6.35083640991800   -3.38358854662148   13.80063907298791
H         4.78705765915666   -3.32121962115282   14.61185298153989
C         6.49052800410803   -0.77143589438794   12.99205256872446
H         7.08525003699299   -0.44307723478269   13.84192030915266
H         6.18602601073806    0.10542031315947   12.42333860812503
H         7.11011045310400   -1.40147965401644   12.35737820015244
C         4.36595712257388    1.62464108574192   10.61194621114908
C         5.21097554150938    1.27026761412205    8.25975792750601
C         4.71689919743181    2.07376692237888    7.22130738683388
C         5.17303044852357    1.83023484275412    5.93673213861893
H         4.80469774481737    2.43710987557114    5.12282296651212
C         6.09141461142585    0.82407003069538    5.68771760322378
H         6.43667410167800    0.64928805655813    4.68000681599709
C         6.56714627933989    0.03950875018357    6.72519233941714
H         7.27985795378183   -0.74608219363282    6.52278001395791
C         6.13841633349004    0.24365008886864    8.02579145857003
C         3.71796411413851    3.14783031340838    7.51740438514961
H         2.77987563418094    2.70900243239794    7.85843000171566
H         3.51979296350896    3.74338085283901    6.63054592615535
H         4.07961949247557    3.80234455832084    8.31007523516878
C         6.63091939694076   -0.58832930940090    9.16593933360821
H         7.18903387149605    0.02702923627343    9.87164412918780
H         7.27882673468560   -1.38391794584391    8.80885854795487
H         5.79386951327633   -1.02950380039188    9.70751998727949

