68
CSD_code = QUSSUS | q = 0 | S = 0 | Stoichiometry = C30H29BN6SZn | MND = 4
Zn        3.24460545810677    2.72965830304596    0.72746036541046
S         3.05042939850024    2.97273332274898    2.97414751787540
H         1.75062505606292    2.74467686753004    3.01554594701964
N         1.77111664792267    3.21607444084801   -0.60621961054802
N         4.66777909274543    3.63148103959608   -0.40310706994423
N         3.56788698601151    0.93935298622500   -0.19784063351538
N         2.05867866510990    2.79290692287218   -1.84632005347585
N         4.44988561680639    3.48144999154545   -1.71890868217516
N         3.83511174805624    1.08438120232441   -1.50474749066344
B         3.49253800333280    2.39408324859140   -2.23197688766184
H         3.59115625445374    2.26514248282958   -3.39980025591256
C         0.94598433342291    2.80374306771724   -2.60186690022500
C        -0.09731592900727    3.24969084021548   -1.81113379058695
H        -1.11698109755986    3.39263557106513   -2.10501365440823
C         0.46978556800279    3.50479763383549   -0.55751860785487
C         0.90650181801721    2.38405436487199   -4.02669973629014
H         1.56849438669499    3.00225439524138   -4.63028378200836
H        -0.10742415297779    2.47959870384423   -4.40551183263889
H         1.22578349985795    1.34829567309562   -4.12842838858284
C        -0.17054210262210    4.02434863726084    0.64387674927342
C         0.51945438271252    4.88230310305469    1.49813857285727
H         1.53165231019041    5.17584128661733    1.25759803275608
C        -0.09033903833491    5.36772504157111    2.63977178730755
H         0.45694977547620    6.02422592237800    3.29916183250604
C        -1.39486213749643    5.01042595875554    2.93816165379500
H        -1.86929387192068    5.38906469016223    3.83139162431702
C        -2.09156141241519    4.16774388080153    2.08723562495088
H        -3.10981534104901    3.88876427417612    2.31666993611879
C        -1.48573282388011    3.67730875699849    0.94589177872867
H        -2.02392064739476    3.00840137133541    0.29017964295188
C         5.19330730234370    4.36633309166484   -2.40724494039021
C         5.91239689135023    5.11504709204316   -1.49363016305367
H         6.61292790415338    5.89614284810551   -1.70727729155715
C         5.55385039501831    4.61417524192719   -0.23649157928385
C         5.18630681110933    4.47792115724330   -3.88908668418503
H         5.50884870629975    3.54534077037961   -4.34862372193598
H         5.85950697433215    5.27338173423423   -4.19670964437741
H         4.18432605968698    4.70332540826505   -4.25009870137698
C         6.02678781295451    5.01547980685564    1.08126817129800
C         6.15028408693372    4.07615140428386    2.10279823951375
H         5.91764012073600    3.03869427543977    1.90709573511736
C         6.58283518575704    4.46316421180251    3.35660409952060
H         6.66090458025594    3.72894576302843    4.14393015350680
C         6.90794502309218    5.78669834585068    3.60288230305783
H         7.24277530771070    6.08845886103543    4.58440771295772
C         6.80346686540908    6.72376744276825    2.58796356322882
H         7.05797618357566    7.75676818709591    2.77711900169995
C         6.36594744271180    6.34302767041002    1.33369187617523
H         6.26648231360218    7.07738383315892    0.54755269008335
C         4.41110138775943   -0.03461005627317   -1.97948658819594
C         4.52023552314926   -0.93056272345318   -0.93162091511935
H         4.91942118848803   -1.92349373281183   -0.96774596699631
C         3.97093706542356   -0.27541309154148    0.17636202475807
C         4.84349213465822   -0.20847815762742   -3.39049660397699
H         4.00064073914598   -0.09570307217864   -4.06995642985170
H         5.27095325740832   -1.19896423386172   -3.52020241095772
H         5.59209109997498    0.53660427030392   -3.65453545880129
C         3.80578521411233   -0.76122746805266    1.53987298379189
C         2.68158810310044   -0.40788112905108    2.28243829423232
H         1.91571245411596    0.20500160423099    1.82763436234743
C         2.53544925442707   -0.85564692398342    3.58142003069168
H         1.66534921570983   -0.56886348284688    4.15302797297737
C         3.50319628281246   -1.66632910674914    4.15061834261513
H         3.38993934464156   -2.01187330407959    5.16757867757196
C         4.61657591735166   -2.03452066834582    3.41335787309025
H         5.37199598502705   -2.66840830253478    3.85486752629316
C         4.76891786964612   -1.58671589016494    2.11485864872009
H         5.64557154919729   -1.85898565772206    1.54520312743425

