51
CSD_code = QUSTUV | q = 0 | S = 0 | Stoichiometry = C24H18N3O5V | MND = 6
V         2.31589951477891    1.97357923285581    3.14235180090609
O         3.15260669588368    3.04283570313079    3.83811913230304
O         1.29888013902921    1.32403779842828    4.59392089546941
C         1.83836944152560    0.42374634795634    5.31141410692419
N         3.00586179135240   -0.08245131191515    4.96597451241792
N         3.48851581500604    0.52952066798793    3.87114388074394
C         4.68659818259464    0.23024401841620    3.46699539009876
C         5.26179532226477    0.89297119366027    2.31763015328487
C         6.63206593638192    0.84169668240194    2.02825651879576
H         7.30270520146063    0.34692086861933    2.71336273365783
C         7.14997675930664    1.44923467609717    0.90608440018153
H         8.21095740336989    1.41007351543040    0.71357127698199
C         6.30735078803672    2.11648769978976    0.02293078135832
H         6.71388654629742    2.58642734019221   -0.85998772029588
C         4.95572472725507    2.18901202962957    0.27479471965638
H         4.28613596424763    2.71623315385996   -0.38954281803588
C         4.41058801068830    1.60455886731498    1.42736560107779
O         3.13787998665475    1.67193450828402    1.68039441664549
C         1.16513442991080   -0.06703928016561    6.51937240084360
C        -0.11845558958285    0.40778460720974    6.80229449599416
H        -0.55685473734189    1.11808179894298    6.11572226938160
C        -0.80071980635786   -0.01497341514371    7.92136670441072
H        -1.79144201461420    0.35932463459119    8.12766068116427
C        -0.20221148296266   -0.92428553423595    8.78512586555961
H        -0.72966660159529   -1.25880889971448    9.66595583167608
C         1.06503432615948   -1.40220405983370    8.52804735208645
H         1.54410427908574   -2.10462262359559    9.19179493963148
C         1.76958430975441   -0.98545517195933    7.39747742347731
C         1.03658297366218   -1.25041717963542    2.17943043450624
H         2.00744222792168   -1.70427319249368    2.34539951147665
C        -0.07791048549270   -2.04742213812249    1.87024408101379
H         0.03399325364124   -3.11880231199026    1.80722738184088
C        -1.28728874899091   -1.44399281880585    1.64780181058485
H        -2.16538999157012   -2.02381571232629    1.39998704068643
C        -1.39025025373371   -0.04087355496564    1.74631567386323
C        -2.58196090495356    0.68265619222937    1.54330894133381
H        -3.48327178497376    0.14615302573218    1.28717877288281
C        -2.58695164663909    2.04808952782330    1.67680248287808
H        -3.50374328877339    2.59762361776575    1.52036458342956
C        -1.43230233342333    2.75488322434392    2.02025156853085
H        -1.45809073575552    3.82944158742810    2.12894360895087
C        -0.22759987825842    2.09271458862839    2.23326409472415
C        -0.20568086106110    0.66477457690435    2.08154149293248
C         5.47014146061173   -0.82163540149261    4.20130560193047
H         5.98700381337882   -0.36963233411299    5.04753224391211
H         6.19847223702575   -1.29561110934195    3.55114314876440
H         4.78988023831982   -1.57621069213298    4.59113636126794
N         0.97589302378102    0.05281124192575    2.27926163802156
O         2.99962615071792   -1.48133083011537    7.19995917001308
H         3.36348106516292   -1.07477980214338    6.38291616732862
O         0.86811913081039    2.69438444665577    2.56528644272766

