74
CSD_code = QUSTED | q = 0 | S = 0 | Stoichiometry = C30H32BN9SZn | MND = 4
Zn        8.47823895340096   11.88825177299989    4.10292702127682
S         9.30629949363279   13.20326438647420    2.45479254473796
H         9.83866900877074   12.24975575511662    1.71628668882266
N         6.44094901815180   11.81739468307564    4.22998929509778
N         8.75064994286997   12.54697887720399    6.00996113433854
N         8.51517693182290    9.96289835489794    4.80165999159820
N         5.96781042281244   11.50253648893083    5.44338855247291
N         7.89102973985489   12.04655178204531    6.90950210460250
N         7.71306147039150    9.77571320903149    5.86126436843464
N         6.59570470595145   12.15278629326896   -0.01845761500674
N        12.44329703643835   14.14091213411956    4.51199696996128
N        11.62720040154296    9.50981180073185    1.90733724429408
B         6.91911811016268   10.92745996539261    6.50817591330249
H         6.31634252836239   10.54147271354316    7.44410168042691
C         4.65137926041856   11.77438183478025    5.50359362097628
C         4.26890002372117   12.28564139843662    4.27610434159751
H         3.28704906006248   12.59241136734007    3.97818023519313
C         5.43221276184520   12.28670065128886    3.49783710101549
C         3.81313000387605   11.54823942750702    6.70964105923463
H         3.84455177042678   10.50290993903546    7.01099107407596
H         2.78420372613821   11.82289926068700    6.49407484014730
H         4.17057643819385   12.15045256754023    7.54317792566229
C         5.60908602806720   12.65423564345889    2.10176689956225
C         4.98607302791561   13.77013599386469    1.54659814817784
H         4.36100076461563   14.40303773198748    2.16084946306584
C         5.20089154904345   14.06407613724461    0.21498006609043
H         4.74334765167911   14.92980363561013   -0.24042071146227
C         6.02759552227484   13.23237216271017   -0.53884708963075
C         6.40102100154244   11.87863042765841    1.25457109811843
H         6.87854574186510   10.97646040132984    1.62107786558406
C         6.31726789019941   13.52085680430564   -1.97755861986720
H         6.81710906157102   12.66770531608594   -2.42595150501705
H         6.97203816501367   14.38816441398069   -2.05253785686892
H         5.40017315517737   13.73897719569654   -2.52140849504719
C         8.01538896965974   12.70826520553226    8.07465485904792
C         8.99244704073353   13.67377379103015    7.91030005681209
H         9.35000264890154   14.36790768950238    8.64320389361395
C         9.43549664367538   13.53013004448030    6.59104592609366
C         7.21636061177608   12.40619669635641    9.29074942186381
H         7.34992767354695   11.36849020766854    9.59021428472513
H         6.15611662209774   12.57020538796817    9.10621513764590
H         7.53498943165038   13.05234772332878   10.10410993043052
C        10.49623895304850   14.24385295096820    5.89507702005505
C        10.61500210359990   15.63051792387833    5.95751768826937
H         9.89858894146627   16.21055304354894    6.52252811573382
C        11.64197272844476   16.24636540073408    5.27031056926890
H        11.75155767301728   17.32060378963395    5.28779673381402
C        12.53637771008312   15.46312433481741    4.54216950373680
C        11.45668384893445   13.55417894483503    5.15545957902089
H        11.44096111683218   12.47168089316565    5.10997811133944
C        13.64841425079610   16.07894061427836    3.75432627192376
H        14.33699968496311   15.30384544010357    3.43227301153155
H        14.17862374139655   16.82236379844508    4.34639281230820
H        13.24179656646095   16.57227831178938    2.87233675555533
C         7.68812874746602    8.46909196033758    6.18499455858275
C         8.49826175882852    7.79390022990078    5.29124040820747
H         8.71070630909366    6.74452969148964    5.27712860717911
C         9.00286731630620    8.77834107457535    4.43370610634734
C         6.90579460631032    7.89962062941942    7.31274678187949
H         5.84174191769971    8.08109841674728    7.17312809586377
H         7.20584714154106    8.35095316995311    8.25639433112467
H         7.07566172181877    6.82762226691584    7.36528876647758
C         9.90183988759971    8.61881582418760    3.30306124415307
C         9.89433439201690    7.45233902991061    2.53530591420919
H         9.20864730193984    6.65196809748598    2.77423961351554
C        10.75486663849873    7.34528638208310    1.46225160881474
H        10.76731116229723    6.45567563124773    0.85030585449038
C        11.60649495827682    8.41015508120416    1.16718034869158
C        10.81293072064195    9.61006025391616    2.93815353892369
H        10.90539093907336   10.52113185413112    3.51905279733804
C        12.54190241046897    8.36121004306764    0.00182003656154
H        13.12807305519399    9.27444106146694   -0.02907289681033
H        11.98131616122217    8.26334410285098   -0.92657968005104
H        13.20913552453261    7.50481247965159    0.08524892676508

