51
CSD_code = QUSVIL | q = 0 | S = 0 | Stoichiometry = C24H17ClN3O5V | MND = 6
C         2.18346179226455    5.41762001970408    8.25907839668310
C         1.78045791091144    6.36978546730990    7.30900419798057
H         1.45653006694398    6.01469223300665    6.34166770511777
C         1.76898600794284    7.71258680879643    7.60908503804816
H         1.44230845844094    8.43559793594100    6.87835563070798
C         2.17563461662268    8.13321093691854    8.87188990502578
C         2.60354976685768    7.22909081516549    9.82037700925856
H         2.89084815491517    7.58993550648997   10.79462341968775
C         2.62369004805860    5.85751855664431    9.53845421709234
C         3.10458062047455    4.88711008640934   10.49861186205261
C         2.83741398802163    1.53899615716638   11.02243895723054
C         3.42926770576961    0.94674462134041    7.26557521872755
C         3.13617582801773    0.45072127014509   11.95907336389588
C         2.75761271886483   -0.84825799465903   11.60715634293152
H         2.26202877064378   -0.99007953379601   10.65718824966382
C         3.00732836485497   -1.91151701253179   12.44553013606362
H         2.71110333537500   -2.90922408467325   12.16106578535473
C         3.64044615752542   -1.68951783529247   13.66280756070806
H         3.83722926953884   -2.51785990708033   14.32687120336132
C         4.01760565378225   -0.41630438279683   14.03256502709309
H         4.50494643075889   -0.22842931029563   14.97625886056978
C         3.77453996720913    0.67251844131345   13.19346085711764
C         2.00775459791116    0.83761742066755    7.09478434944607
C         1.52028560252089   -0.19354738898258    6.29902087337579
H         0.45215574988252   -0.28273733649787    6.16386800664506
C         2.39179139084688   -1.09848391065859    5.68811250097335
H         1.97609853748057   -1.88709510470498    5.07813914221256
C         3.75109747183882   -1.01071564851716    5.85161362852424
H         4.41401076373884   -1.72099902421585    5.38070831620820
C         4.30122630280674    0.01357682496356    6.64774669715639
C         5.68111079864623    0.17846765365574    6.88818252949772
H         6.38344867100904   -0.51099686945003    6.44119087551489
C         6.10670902732705    1.20771635987119    7.68571324011927
H         7.15469053627672    1.35964648156562    7.89275310215177
C         5.15679022637332    2.08307255889847    8.23740903624065
H         5.47126632939205    2.91200619691222    8.86191978645999
C         3.90157945007649    5.34511503965670   11.68732608339874
H         3.23186141741873    5.54848453599602   12.52247683701588
H         4.46371580739043    6.24485779649160   11.45699806918340
H         4.58851677386424    4.55871950819839   11.99219576513055
N         2.85571100213438    3.62238776318553   10.33779575808837
N         3.28108246267698    2.75638549202211   11.27147589864468
N         3.87000588267907    1.95919617719428    8.03415306183109
O         0.44478904985533    3.28222448049358    9.63644218473533
O         2.19345924322197    4.15109876828226    7.97860820279353
O         2.16189538317312    1.31343357481089    9.96930907116342
O         4.16004763553926    1.88795464954704   13.60639173531738
H         3.89840043121509    2.54081001279544   12.92149170074054
O         1.24993040214110    1.69904712081516    7.69325496056431
V         1.70301290970543    2.80685601615794    8.91752235689390
Cl        2.14401050906414    9.81766205561927    9.25745728560037

