45
CSD_code = QUSVUV | q = 0 | S = 0 | Stoichiometry = C19H24NTa | MND = 12
Ta       10.10999201825299   13.24778511814252    0.09059044793003
N         8.69910751291994   13.68359317140969    1.08849773867705
C        12.97934726897649   13.00039470349398    0.76248189290214
H        13.47799749579240   13.78471043033757    0.21533573101325
C        13.29502569787881   11.67387905317330    0.76123319098771
H        14.05311055403345   11.19701289696597    0.16320441390360
C        12.45332148748243   11.00008860836702    1.69909874317384
H        12.48918137393056    9.94397796210791    1.90519315946726
C        11.62646403663676   11.91445634993643    2.28159731646453
H        10.91584277891680   11.73950536480312    3.07408418078326
C        11.87162121129117   13.21562462483259    1.67500120046619
H        11.82491435935449   14.11885530389588    2.27896433449112
C        10.81358162635992   16.04323751544862   -0.67603327156194
H        10.27326085306784   16.68494821103157    0.00211131623047
C        10.19361012360873   15.00848545111081   -1.49228487534529
H         9.20013951835737   15.16154050201282   -1.90763551352731
C        11.26565794869918   14.49806460801745   -2.32701010152746
H        11.12974081099455   13.77949437918555   -3.11975782768119
C        12.42999332535262   15.11036194046945   -1.96842595469013
H        13.40603650641789   14.92217500209869   -2.38274556383691
C        12.15063975818808   16.06438954028668   -0.94173779605606
H        12.88822968366246   16.69452653760995   -0.47481380804011
C         9.48712029567829   11.13451911684797   -0.78030284721453
H         9.11678570030214   10.51237839100383    0.03130497585196
C         8.58764227910599   11.56297812489693   -1.84304566564304
H         7.54781247252108   11.80839537003167   -1.69422573931417
C         9.27587853443383   11.56902836569420   -3.01974280469220
H         8.89978601163179   11.87103275674506   -3.98226151834231
C        10.60056992280182   11.08914452650019   -2.77949541030511
H        11.35982284527035   10.97849564800392   -3.53516406149981
C        10.72748992143222   10.79652367712331   -1.45400008444565
H        11.58223959476308   10.35315934620777   -0.96818913091145
C         7.58992722407987   14.02665093119792    1.87615674899119
C         6.81414292898419   12.74553913051714    2.23625298917965
H         7.46604243621145   12.06837588585806    2.78143893687947
H         6.48539663770408   12.25247961040715    1.32558431799971
H         5.94968111800514   12.98525340828450    2.84884392312659
C         8.08272125592809   14.72034694956987    3.16016902982383
H         8.73393793705999   14.04596355053703    3.70938588325517
H         7.24107956351434   14.99964687787750    3.78752259445362
H         8.64771070120057   15.61046445680868    2.89700304256964
C         6.68310630155248   14.98231398385005    1.07800461110798
H         6.35749624951169   14.49365286101670    0.16369335005811
H         7.24161853395011   15.87601847409606    0.81370735078017
H         5.81407558418377   15.26113128218656    1.66711055406744

