61
CSD_code = QUSWEG | q = 0 | S = 0 | Stoichiometry = C18H31BCl2N7SiTa | MND = 6
Ta        1.91292835011802    3.51508541873161    3.61027286540173
Cl        1.48132144230945    1.35665302923369    4.22374361564382
Cl        4.09321669669017    3.51774626984676    4.29466701775112
Si        2.75034185076067    2.60700644585558    0.33511759571226
B        -0.10159098724860    5.90984740687568    4.95898757600058
H        -0.81483951058575    6.75807803800474    5.35705426126999
N         2.20659901400056    3.21481921604906    1.84065839611674
N        -0.27202511829939    3.91880359259412    3.42245027823788
N        -0.88878687307917    4.91922997201670    4.08401733694473
N         1.92886074584803    5.74087636505968    3.47501714505190
N         1.02454900606238    6.51812992787045    4.10525660710758
N         1.36455012547753    4.10867224668394    5.89519328115334
N         0.52811674780970    5.14137767182055    6.12392714651689
C         1.98330030808317    3.59198418165175   -1.11740874334394
H         0.90009319368020    3.52806199405767   -1.11405532209276
H         2.33510992275870    3.20334230201796   -2.06707353159906
H         2.24918013129670    4.64296435505572   -1.07043282327562
C         4.66088811826705    2.75036604351521    0.26474880431184
H         4.98235941611478    3.71231115422438   -0.12187444043727
H         5.08879600671896    1.98174757998402   -0.37038295038218
H         5.08184958063871    2.63489803706600    1.25866425093936
C         2.24495274839839    0.76327242818033    0.19274189456974
H         1.24834414377881    0.64582146737544   -0.22091286547497
H         2.25465885260915    0.29561660197889    1.17231969980040
H         2.93173133533762    0.21663111762844   -0.44508703962309
C        -1.20128769752299    3.22908992404457    2.75648154287998
C        -0.86499860415487    2.05886175508200    1.91498060652423
H        -0.64255812832137    1.19784022533506    2.54510033171150
H         0.03169795620017    2.27868686551474    1.33761761954733
H        -1.69516409031862    1.81486956990715    1.25800953108415
C        -2.44889002115144    3.80123503653096    3.00143377887671
H        -3.39542062020873    3.48105499136569    2.61695359509992
C        -2.21113588165171    4.87087012203643    3.84921364793793
C        -3.19887147943166    5.81959053170101    4.42479104148108
H        -3.17626590315971    5.78595639844365    5.51224347397815
H        -4.19565227234880    5.55247978835145    4.08530834312368
H        -2.98141221049449    6.83929935422382    4.11299549947336
C         2.78707128244873    6.53990154884578    2.83642467047344
C         3.91349825302881    6.01057072801958    2.03554331310425
H         4.69084640069855    5.62426238348934    2.69466023434547
H         4.33235547016540    6.79324430740155    1.40922185573521
H         3.56087252679536    5.17855902816492    1.42786055360085
C         2.42374669919894    7.86625550854016    3.06567240969842
H         2.91041053463272    8.74488202630584    2.69495086437337
C         1.30103923921239    7.81309332783399    3.87568306560977
C         0.50955127705815    8.94737815014770    4.41785988889363
H         0.50635278011303    8.93025474226063    5.50591201132350
H        -0.52211557556004    8.89557530959626    4.07546425787083
H         0.94550151790816    9.88413654013491    4.08232319799350
C         1.75328378783666    3.62848338985631    7.07322442636566
C         2.68388487178389    2.48006101362942    7.21413713012669
H         2.28479324525630    1.60372443851030    6.70390957831916
H         2.82897098240348    2.24808027825462    8.26612509162131
H         3.64741579862628    2.71635711201623    6.76270614016880
C         1.15024931890188    4.37334167475113    8.09159774433522
H         1.26311904040246    4.23410210325131    9.14746821184967
C         0.37962659453959    5.32535365008096    7.45112235574579
C        -0.47269090102045    6.38172907633870    8.05645615373684
H        -0.13979843469253    7.37144250003700    7.74830944197576
H        -0.41470536557433    6.31371277717991    9.13942485638379
H        -1.51132563914953    6.26392095939526    7.75210347830394

