82
CSD_code = QUSYIM | q = 0 | S = 0 | Stoichiometry = C31H45ClMoN4 | MND = 5
Mo        2.81932661183076    8.33999948145652    3.52009916873662
Cl        1.07598468661443    7.21095197588754    2.49405623186527
N         3.20184934575165   10.17868948582636    4.24203079856822
N         2.32305914523103    9.84989837634637    1.74317016047537
N         2.72540384750914    7.57577066796439    5.08401307638661
N         4.33271006483528    7.89853196905141    2.73186719996121
C         3.29189497730059   10.68413611863144    5.50945925985968
H         3.19282898689860   10.03366837101087    6.36224107274601
C         3.51541294114188   12.03366883410669    5.46549618269290
H         3.63079764337733   12.69400382281478    6.30267309757146
C         3.56131131002484   12.39623498313212    4.09939528065562
H         3.72054181728210   13.37906566897741    3.69895401515004
C         3.36722028613019   11.24057816388067    3.38938911009249
C         3.30677575006573   10.92723744867607    1.93214814320592
H         4.28075608898774   10.55811845964768    1.58797395633483
H         3.04389587071796   11.81874868554458    1.34099667728436
C         0.97766433789454   10.40954333052288    1.89641101108994
H         0.87940544146568   10.87978748445099    2.88045578939391
H         0.22966447564023    9.61925846662068    1.79880479676649
H         0.78249296516110   11.17247092680217    1.12919236658118
C         2.45884285868857    9.28332502017658    0.40305608267242
H         3.44741030118242    8.83453474545055    0.29549843513368
H         2.33048467685159   10.05678397769787   -0.36649026487775
H         1.70625537637024    8.50852179719594    0.25031725306123
C         2.66017167591365    7.08604567456490    6.32618484359142
C         3.82629283637700    7.00709806992096    7.12538343588628
C         3.72329309102454    6.50027358439081    8.40872212987192
H         4.60741774764126    6.41989292461291    9.02282371661067
C         2.50678266447596    6.08950522853982    8.92200384055814
H         2.44750743656745    5.69882660162879    9.92717530077735
C         1.36154710631616    6.17816443505834    8.14734109448556
H         0.42154546655332    5.85811305432411    8.56811422766556
C         1.41306717149007    6.66377335019416    6.85533396272471
C         5.15170988389039    7.47398902870765    6.57213441310222
H         4.95478390197619    8.05327446889070    5.65655471601240
C         5.89018921428235    8.37141707660936    7.56715903741740
H         6.76890274197479    8.80767613539623    7.09934279833162
H         6.21875367967088    7.80780048353135    8.43696275569983
H         5.24569239142795    9.18096292488076    7.90183282693125
C         6.00851587865805    6.26512323652182    6.18454421878922
H         6.95759771524082    6.59100157967906    5.76515825375705
H         5.49450190122240    5.67030273261858    5.43362317854749
H         6.20484623792903    5.64012304692847    7.05348279039290
C         0.19223987174312    6.76322796258388    5.96685382725484
H         0.48292262721190    6.38623655914649    4.97710003502593
C        -0.99497125325592    5.93289035774259    6.44837708351834
H        -1.77494132296720    5.93910922516722    5.68950109264217
H        -1.41451944269972    6.34293139188170    7.36460947719601
H        -0.69851640520729    4.90153885981763    6.62436988535462
C        -0.23082224683268    8.23129021536452    5.81366829487248
H        -1.11167005759406    8.30267515456546    5.17743717092395
H         0.57585366632890    8.82156457498653    5.36064670017718
H        -0.46563068568902    8.65921849966260    6.78671442238367
C         5.49751465069498    7.26485444072628    2.53130755905355
C         6.73159611393920    7.92213723290701    2.75669472740176
C         7.91270482906430    7.22840438764967    2.56618889308782
H         8.85536459185173    7.72738577484475    2.73327934541292
C         7.91030191357977    5.90352187727378    2.16946213050050
H         8.84233370803137    5.37378779760748    2.04005291232374
C         6.70787635193760    5.26265146988987    1.92556824705490
H         6.71877542631256    4.23253757975933    1.60501804432063
C         5.50156025545875    5.91906341736222    2.08174095158829
C         6.74160944394131    9.38334096022555    3.14176021502193
H         5.73692186353530    9.64176290190154    3.50521471764896
C         7.73533215214050    9.69680125016806    4.25940089436437
H         7.55924946794314   10.70129926480669    4.63815821735678
H         8.76154540349096    9.64385287316764    3.90334553761201
H         7.61589096675713    8.99185164605819    5.07683195138005
C         7.05967281400504   10.23289503082207    1.90581071029570
H         6.94972234837854   11.29166459082823    2.13187955168506
H         6.39740477054206    9.97732520393437    1.08028964073060
H         8.08175690112642   10.05119874830867    1.57938745129773
C         4.18045785244456    5.24177223771711    1.80289273063610
H         3.47533168083686    6.02033581374069    1.47305726957290
C         3.62819663143431    4.62548775378130    3.09401628719024
H         2.66975830137701    4.14603565548109    2.90173987267279
H         3.48659393182972    5.40273524003336    3.85047694739174
H         4.31992388448861    3.87909978582133    3.48056108994383
C         4.25938775601769    4.18403635695177    0.70236982682170
H         3.25513107497402    3.87970094240084    0.41488265552629
H         4.79046642042531    3.29932625736392    1.04502704264796
H         4.76576519293622    4.57795880868566   -0.17617985248573

