63
CSD_code = QUTPEA | q = 0 | S = 0 | Stoichiometry = C24H34Cl2Si2Zr | MND = 12
Zr        4.47916656830062    4.62311330672755    4.41222376333129
Cl        3.21510427621731    4.62396033922871    6.38810909288026
Cl        6.52368435158033    4.62478190358927    5.57462609953385
C         5.43475451009774    2.73308426537896    3.08693869633891
C         4.21191890226725    3.14983908299965    2.51026781139174
C         3.15037784455837    2.87696826759341    3.42671480362535
C         3.74790579074514    2.24804959324354    4.55486509803401
C         5.13749783846324    2.14906848040993    4.35559253423596
C         6.09180650780787    1.39195620997816    5.22597311464571
C         6.71405247833488    0.19541212666829    4.43876682938303
C         7.71371545536176    0.66211950262071    3.46007791867167
C         7.29795596571036    1.29544723561189    2.19416346741485
C         6.77998904802485    2.75120781002588    2.42752879079758
Si        1.35454352274042    3.42914947623249    3.29400226550761
C         0.62124528793842    2.70031301190152    1.68023817877220
C         0.41686854700644    2.70017026450696    4.78913454979550
H         4.08242696470581    3.45203128708347    1.47699647647432
H         3.20730804897076    1.83187496081497    5.39680861485061
H         6.90898186138494    2.02834723091162    5.57663883830236
H         5.55569453188319    1.00725309958651    6.09753171285238
H         6.71089185633627    3.25993252502767    1.46110898665978
H         7.51065646298005    3.27756741328062    3.05241600701760
H         6.48840111295668    0.72992654809271    1.72492093403538
H         8.14123854974239    1.34450004907476    1.50218863871244
H         8.70996122636340    0.86539461445893    3.81881303666758
H         7.18142547199702   -0.47362477896738    5.16376771418812
H         5.89947735815213   -0.33636481498735    3.94052322641671
H        -0.41717159733476    2.99265074574866    1.57041205639768
H         1.15274817017608    3.04958278938922    0.80110101865987
H         0.65990235946938    1.61561089692959    1.67739392781779
H        -0.63127235404011    2.97967894441580    4.76583599508479
H         0.46548527110332    1.61520323690798    4.80689630506498
H         0.83768076273196    3.07211669098360    5.71890154662846
C         5.43471438904878    6.51325466531810    3.08697613832157
C         4.21180777293750    6.09655840595271    2.51041344767488
C         3.15036920112465    6.36942170821510    3.42698075723500
H         4.08219659200696    5.79445047571382    1.47713400297684
C         3.74803033723777    6.99821001232139    4.55513684151628
C         5.13760447837976    7.09720016688701    4.35569603001850
C         6.77988676517279    6.49514174013183    2.42742325982893
C         7.29781932243681    7.95088912260696    2.19387746510364
C         7.71363681232315    8.58434791677586    3.45970143518349
C         6.71402599764974    9.05101615154578    4.43845665560432
C         6.09199098770139    7.85446050506038    5.22586007820693
H         3.20751320095833    7.41448184992714    5.39709066908505
H         6.90921425805073    7.21807547864337    5.57645841588087
H         5.55598008682973    8.23922809908471    6.09745557105689
H         7.18139205513576    9.72021412119887    5.16331366025558
H         5.89934030632548    9.58265250768973    3.94024379443008
H         8.70993736100983    8.38121012152787    3.81835541333324
H         6.48822453286832    8.51633839687311    1.72461915146593
H         8.14106296728179    7.90179010799823    1.50185801202062
H         6.71072315687106    5.98630968239028    1.46106448747615
H         7.51063609144854    5.96886953834711    3.05228684029071
Si        1.35449465578790    5.81735281464010    3.29429986334638
C         0.62100001042335    6.54656155983272    1.68079777905884
H        -0.41742811528105    6.25423482174917    1.57105227452511
H         1.15238857721419    6.19748058858359    0.80151752982402
H         0.65964574917140    7.63126388121243    1.67818082575455
C         0.41702105862265    6.54605334958084    4.78969783752085
H        -0.63111558087214    6.26652804475011    4.76648473077778
H         0.46561420658864    7.63101924991938    4.80763486866120
H         0.83794981281405    6.17396260005598    5.71935411337577

