52
CSD_code = QUTQAX | q = 0 | S = 0 | Stoichiometry = C22H20CrO9 | MND = 9
Cr        0.83917511537671    5.29052386608677    1.05637909868228
C         3.09607238565586    5.68960457339992    0.83341744939364
C         2.82327761250199    5.46669740605003    2.20560556447328
H         3.18862885207991    6.20303542695233    2.90754235224184
C         2.20599898975218    4.28522727150069    2.62146061607233
C         1.82368177088824    3.30343316776765    1.66185324893155
C         2.05825272186901    3.56017146487425    0.30503484913217
C         2.71329316260340    4.73908038051686   -0.11454297405629
H         2.96856658698326    4.83648504051262   -1.15964414962460
O         3.76946124905288    6.83367225958096    0.55864330121946
C         3.80392783308706    7.27950964499109   -0.78161299982157
H         4.24549814250945    8.27355201951557   -0.74671363173417
H         2.79297748950832    7.34057813287552   -1.19673326680128
H         4.42448218834375    6.63048532247529   -1.40688301410356
O         1.95587808096550    3.97109829551160    3.91610895771434
C         2.00852018808559    5.00299199061236    4.87889128374587
H         1.62187438181716    4.56227268112394    5.79573321971362
H         1.37759310494641    5.84716149873466    4.58146485021075
H         3.03381763326318    5.34494033545108    5.05029897368898
C         1.23929928992395    2.03844911972073    2.15266982136979
C        -0.09785880897625    1.71668476452286    1.84705282393484
C        -0.64962647224585    0.53728821115387    2.34413718562840
H        -1.67287771399380    0.27790396182435    2.12353642698471
C         0.10849185567572   -0.31222777895954    3.12362960566548
H        -0.32810900421707   -1.22771154484806    3.49635609586989
C         1.42944478027725    0.00032134796737    3.43727107319301
C         1.97733737502085    1.18824404308118    2.94912572692623
H         2.99959058037153    1.42560446467728    3.20158377334993
O        -0.75752842981887    2.61416729610211    1.08009204554238
C        -2.14370808558252    2.43786931436668    0.86273078082260
H        -2.45829573608329    3.30417536461956    0.28546492662291
H        -2.69042265239159    2.41610279233143    1.80862825131812
H        -2.34565196113155    1.52477006940826    0.29465214233441
C         2.23807745141638   -0.89350856082074    4.26290126906840
H         1.69579914991615   -1.80221305388086    4.59684609142254
O         3.38757638861375   -0.71058672292706    4.58065423775740
C         1.75028229138939    2.50409709113349   -0.72836002485823
H         0.65575875591740    2.46376799748254   -0.92169145675224
O         2.19771181889109    1.23699837110039   -0.30353725817519
C         2.38566913323572    0.46783690070996   -1.47196174781994
H         1.53420946659842   -0.20541794121984   -1.62774912981459
H         3.29671123351263   -0.11861756290446   -1.34431344493304
C         2.48768730167586    1.51447430781298   -2.60582618998965
H         3.43231276382237    1.47413185364233   -3.14862110248678
H         1.65202746003462    1.41633324568115   -3.30976922980644
O         2.42228595778464    2.75459732233523   -1.93709531449206
C         0.48062984491977    7.06936656913443    0.90218997646422
O         0.19113896443395    8.18377812168052    0.78646277301135
C        -0.61992762307639    5.30408990232825    2.14165586406057
O        -1.59082106340774    5.32461751890547    2.77121476678155
C        -0.44649371014199    5.18849983655471   -0.21960438850383
O        -1.31379809165503    5.16349259875180   -0.98753009957560

