43
CSD_code = QUTWIN | q = 0 | S = 0 | Stoichiometry = C21H16ClMoNO3 | MND = 10
Mo        3.92860862244846   -0.34436832261307    5.79913427223896
Cl        5.09902531599245    4.10259229134063   -2.40651530797182
O         2.12241164092049    0.46015551408935    8.15603802355863
C         2.81650991750145    0.15908090384580    7.29122062941608
O         5.63969919591522   -1.12450353061785    1.97723256276829
N         4.00368550615142    0.47180898949051    2.10673502748743
H         3.28892859780833    0.83792501332584    2.72291722791171
C         4.79565118126511    3.02804701949508   -1.08564421360294
C         5.41765846634102   -4.15847020153140    6.44585708056176
H         5.72538590713966   -4.91324705169779    7.15413891407240
C         4.65764163760813   -0.65921921774432    2.52393543625193
C         4.71289152839944   -2.21563637793895    4.58420610884343
C         6.02015353452783   -2.74427825125663    4.56889462527082
H         6.72023317015830   -2.41403245655657    3.81475316389263
C         4.30780396828225    1.30345241709002    1.02845500224501
O         3.43092634883046    2.59653481634991    5.10858774140273
C         3.62709191004018    1.50257860618460    5.40206306760902
C         2.67021373807230   -1.25717957152908    4.10480972085359
H         1.85414286941794   -0.83651325402768    3.52440442870444
C         2.49877074971965   -2.08969550206755    5.23677206522633
H         1.54225200761977   -2.37572081948420    5.65856588317403
C         4.04877023972529   -1.27068752948158    3.72397833940229
C         6.02029757854980    0.67751638574988    5.81372114064388
H         6.01401761846629    1.72575097110508    6.09516306535074
H         6.69050112236832    0.45464370120830    4.98883143031465
C         6.34912161740188   -3.70127240927593    5.49330620651638
H         7.34129445752882   -4.12786765921648    5.49170477952645
C         5.21506082524033    0.95099772471119    0.03248763675237
H         5.73119649333603    0.00768111799061    0.08937606275008
C         3.75166361014164   -2.70903929686160    5.53033874180350
C         3.65021497252047    2.53107454795000    0.95056718206237
H         2.95007324349558    2.81357275501153    1.72379421488236
C         5.88625160839128   -0.29539099090966    6.81967838755006
H         6.44659024171782   -1.22986929324142    6.79451006723568
C         3.89083168544006    3.39247530660637   -0.10060227173179
H         3.38174601074427    4.34155509315794   -0.15639347386900
C         4.13299303019509   -3.68141701134887    6.47489176709220
H         3.40825487806936   -4.06242998290119    7.18158412497054
C         5.45762261919088    1.81308665496592   -1.02020017366872
H         6.16041539281052    1.53937585723737   -1.79108965357072
C         4.97113064127033   -0.02710204618903    7.87138493953313
H         4.94506330445859    0.98757755043187    8.26654860448379
H         4.88360299475054   -0.78694246085698    8.64325742206318

