43
CSD_code = QUTWUZ | q = 0 | S = 0 | Stoichiometry = C22H16MoO4 | MND = 10
Mo        7.56905227132788    3.48006818489312    2.35426965037415
O         7.44537887081097    0.25501544853567    1.23789655182682
O         6.24634919265058    5.41354462210977    4.33603020897433
O         4.58541819456351    3.01205995638869    1.78128669730919
O         5.50582503398098   -0.37249499481328    2.17435427804886
C         6.74027921865433    4.67641305412773    3.60736359154825
C         5.70031250914854    3.17871803880099    2.00049787554203
C         7.76024041905750    2.76842206033337    4.65854052495377
H         8.53815486570894    3.17377160373253    5.29839630646456
C         6.61401462815976    0.37728903596313    2.11605419735315
C         5.76844300961621    1.64508666474829    4.25852951253322
C         9.83426775632368    3.89641447097883    1.82633324103420
C         5.74658744814921    3.00391899842249    6.27250339436114
H         6.23239357757015    3.68124561425516    6.95891898690015
C         6.41292418193742    2.51881872333334    5.16370227375916
C        10.03851232626078    1.64764979451904    0.83857370350595
H         9.70802082144030    0.89776162034602    0.13605452544146
C         8.02575512104629    1.81193884636695    3.63586884354362
H         8.95733227085090    1.27104794152221    3.47768791628064
C         6.73030254415937    1.36569969282302    3.18719867694711
C         4.45520468748121    1.26890308364187    4.46194196412061
H         3.95250970563112    0.61575888516895    3.76707159751135
C         8.28758968322331    3.44009249605898    0.16602529622558
H         7.82903747503032    2.98405178501866   -0.70080199001592
C        11.55843283875195    2.41301874171475    2.56827387482652
H        12.41440270838418    2.19651645776353    3.19065939494869
C         3.80114127936125    1.74708684787749    5.59187231321833
H         2.77866662970871    1.45189301995362    5.77447215077917
C         4.43445872807743    2.59809782779223    6.48223071926042
H         3.89993707053040    2.95690881928552    7.34913441508500
C         9.05197560642079    5.07051828667951    1.61212859475882
H         9.27265857519360    6.05510767167051    2.00655117426738
C        10.93912973863260    3.63189416972048    2.66287773989872
H        11.30609131252946    4.39775035674062    3.33382739206410
C         8.14958583305552    4.79844827001461    0.55004578333598
H         7.55915228678426    5.54348462766253    0.02551067288706
C         5.33166344110610   -1.30189098889403    1.11625547508895
H         5.32374402263419   -0.78375681343411    0.15483470364774
H         4.37738723377893   -1.79050333550661    1.29533016796057
H         6.14258759608375   -2.03357511623921    1.11476716618207
C         9.36486863632229    2.88389438889930    0.91671940967063
C        11.11481306804397    1.43215655915794    1.65894522632247
H        11.64829758181435    0.49455458186402    1.60756580124810

