67
CSD_code = QUTZOW | q = 1 | S = 0 | Stoichiometry = C34H28CuN3P(1+) | MND = 4
C        10.35227585448675   11.67781658499891   10.85821931966720
C         9.20677984533815   12.08244718419223   11.53349256208179
H         8.23811421673849   12.00590953824189   11.06471152054671
C         9.32833936557788   12.58576365099590   12.81832222578072
H         8.45322788353747   12.90612922894511   13.36227757870435
C        10.58929853731633   12.67066548068733   13.39096875843084
H        10.72545058589668   13.05670658621870   14.38769543469063
C        11.67605374541975   12.24544964832852   12.64870608733495
H        12.68340748352331   12.28993716152239   13.04060425136023
C        10.75928006567782    9.69244230590316    9.40295586649230
C         9.90770116804657    8.66077556847346    9.02565091051198
H         8.88153371404333    8.86531730772785    8.76282987641392
C        10.39717911432501    7.36532760824339    8.99239713211290
H         9.75479058721789    6.54821191980860    8.70257385888378
C        11.72185125730962    7.13777463431890    9.33676205916612
H        12.13989983854717    6.14475368536067    9.32337591881642
C        12.49994987148605    8.22187960346834    9.70023694433552
H        13.53822612895677    8.10653282658190    9.98126680941441
C        11.02583062821368   11.99405974584837    8.47677399109079
C        10.36789452241289   12.62623928961101    7.42825960679054
H         9.30434269224412   12.50376448203090    7.29492210126722
C        11.09937191336810   13.41630356116915    6.55667818803140
H        10.61041374907487   13.91696103308148    5.73533452430463
C        12.46559830992671   13.55193765479387    6.75706379122741
H        13.06914542336293   14.15758328561530    6.10135283968275
C        13.04021982260576   12.88768773297567    7.82541141908903
H        14.10044295994175   12.95310338188008    8.03053477193933
C        10.25817347283121   11.12236252116056    9.45087529275320
H         9.20632100581217   11.12459311280732    9.15364277068172
C        16.42265277088071   11.47124179956537    9.52197668712630
C        16.13151733020814   10.90652536345881    8.28218870651291
H        15.22855749262831   10.31647978634071    8.17421720319425
C        16.98407281366811   11.10314353617047    7.21249492344999
H        16.76039086595490   10.66088433140349    6.25316232263059
C        18.12572794304106   11.87351893168106    7.37374994743760
H        18.79188228689982   12.02994262931564    6.53916471191105
C        18.41145355971739   12.44634499440561    8.60261672645686
H        19.29952285602937   13.04810196713880    8.72395736820826
C        17.56386574426396   12.24971492290518    9.67922094359494
H        17.78626052660944   12.69819368754112   10.63719606099927
C        15.65946434664104   12.38622683031607   12.11114304065185
C        15.03326305829996   13.62364619851878   11.97688031916617
H        14.33672570748674   13.77232218384766   11.15958153246003
C        15.29890000605221   14.63751665350891   12.87726186836821
H        14.81747868829252   15.59798161544658   12.76905414619402
C        16.18240648389107   14.41623038985037   13.92304163383865
H        16.38949842910169   15.20593762571752   14.62889199831028
C        16.79641845311212   13.18254063001858   14.06657829758442
H        17.48076549275735   13.01240185991485   14.88401813028173
C        16.53840339259807   12.16410970070857   13.16500009633459
H        17.01664337169782   11.20152560970731   13.27862538181782
C        15.86371465593749    9.58901526945626   11.58960068517381
C        14.97846123127921    8.88774124100680   12.40524464708452
H        13.97880135833789    9.28044001733205   12.55270878114454
C        15.37621966655223    7.71065999581923   13.01027714545117
H        14.69130692622384    7.17031815782562   13.64656580376142
C        16.65643413508333    7.22338912691551   12.79461090469977
H        16.96853170452605    6.30340833694311   13.26471041579532
C        17.53472533465893    7.91233915383939   11.97371588736797
H        18.52955681932779    7.52838400957688   11.80524850211747
C        17.14403366435202    9.09414625912054   11.36811077809534
H        17.82903699510118    9.63033072768862   10.72667745641127
N        11.55311434879460   11.76455039059428   11.41967893202025
N        12.02557740292578    9.45927063120114    9.73015493994476
N        12.33475993875677   12.13304689102013    8.65589541368355
P        15.23876798573490   11.13384302034130   10.86100627740046
Cu       13.10797244933056   11.11474919885920   10.25607497172567

