40
CSD_code = QUVQUU | q = 0 | S = 0 | Stoichiometry = C20H14CoNS4 | MND = 7
Co        1.09221833158860    1.08146381815735    5.95627744458110
S         2.69864246199273    1.20356832836730    7.35711871618418
S         1.42289655504652    3.09185825054373    5.36210922612735
S         3.83517660167124    4.53100293072853    3.56728140469016
S         4.14870955394735    7.10126308446830    5.08963421478564
N         3.17538776856093    4.95251191141661    6.11768246674661
C         3.38080707416988    2.77161748181445    7.17370328714446
C         2.77154149371857    3.61432557138627    6.28639570782611
C         4.54738479094764    3.12647343451293    7.98382058550901
C         5.61631810006783    3.83099217690337    7.43213779978969
C         6.69592926234250    4.18293614331945    8.21927789384148
C         6.72662106030313    3.83441316375020    9.55941766928813
C         5.67949206349356    3.11227812320167   10.10765253504173
C         4.59806816868234    2.75604932005945    9.32581694012541
C         3.66503398943128    5.41247455756879    4.93060006857049
C         3.15950258869411    5.87117525959390    7.14971038972267
C         2.68881965188933    5.67298485308532    8.44004878377900
C         2.76607017384612    6.72181031984481    9.33713108449093
C         3.29205024710745    7.95177068260121    8.96190849912084
C         3.74288379312874    8.16456462856952    7.67111626035831
C         3.67048146094433    7.11646927639811    6.77221928796603
C        -0.80002594783856    0.70592703577573    5.16530600713401
C        -0.68525861709490    0.12399979811380    6.45426178223723
C         0.37330777139877   -0.81900750215848    6.41306012884382
C         0.91877371613488   -0.81240121323560    5.10865462082822
C         0.19249400066610    0.13453390137674    4.33700031544560
H         5.61781831350194    4.07378322677179    6.37999887186347
H         7.51972002297997    4.72686446133325    7.78168080222525
H         7.57036006167653    4.11527958690739   10.17175513794222
H         5.70587956373331    2.82541396789142   11.14836812005859
H         3.77803592741037    2.19334398877104    9.74678683242746
H         2.26990428399901    4.72221440793217    8.72776565316891
H         2.40778550526930    6.57979036134799   10.34464324338125
H         3.34340002135584    8.75406953987189    9.68091951216796
H         4.14111953045128    9.11795398817784    7.36382716680323
H        -1.56629004448713    1.39423886119950    4.84736688152335
H        -1.36144769672581    0.27790631923255    7.28040465967149
H         0.65397811339763   -1.48756656560563    7.21079731363180
H         1.67479061877478   -1.48513251177498    4.73631681432145
H         0.30901966387708    0.31068503179814    3.27972587066553

