35
CSD_code = QUVRIJ | q = 1 | S = 0 | Stoichiometry = C15H15ClN3Ru(1+) | MND = 9
Ru       19.56543308275785    8.17240788617710    4.32613525618530
Cl       17.77188590381923    7.57643943408565    5.70224167636995
N        20.47600225024319    8.61495049013827    6.08174664987989
N        19.37830386401668   11.06594282069576    5.01039528918035
N        18.75791509392726   10.01983264836071    4.46051551381659
C        21.46001361192087    7.68974922099068    3.09897474097181
H        22.49745069914936    7.98602773263765    3.20791154443902
C        20.59937983743366    8.42476419862797    2.27360712236952
H        20.96459927306437    9.29409877705512    1.73894948387392
C        19.27307515227551    7.96419528864464    2.04552782894025
H        18.63658380343758    8.49517333260457    1.34593474403109
C        18.82587201843664    6.78553402683434    2.64867591353010
H        17.83545271880626    6.40158913187279    2.43293252798747
C        19.70275989383823    6.03626407059825    3.48100731227565
H        19.37091762908059    5.08796932465924    3.88817326578322
C        21.00949124715498    6.48010613768340    3.69746162679275
H        21.70888960522911    5.87056396585037    4.25949100609507
C        20.58524672082346    7.61358838591590    6.95996145417335
H        20.21774494282590    6.64581631883460    6.63942328742919
C        21.10590965147720    7.78434633776703    8.22970138801130
H        21.16718825184042    6.94294934542959    8.89996113510029
C        21.52512054737311    9.04638504177089    8.61971581362808
H        21.92402715879555    9.22055750023480    9.60600997159972
C        21.41168781199150   10.08652052308589    7.70968403832862
H        21.72543447660551   11.08418149590423    7.97226990113561
C        20.88796000992627    9.83821511878702    6.45098530168671
C        20.75232477912673   10.94144991324155    5.42372948824025
H        21.08780103551643   11.89423510265589    5.83404244666888
H        21.36656445729972   10.69277223405328    4.54415312930093
C        18.54823433779379   12.12123347309828    5.08819243416546
H        18.85802277545107   13.06226005729100    5.49522014983766
C        17.33890063347092   11.72874848256166    4.55925292704727
H        16.44991007542756   12.31517861811793    4.46099449351868
C        17.51726909749664   10.39653664280517    4.18381561432950
H        16.80962755216730    9.71181692092961    3.75370552327596

