59
CSD_code = QUVTOR | q = 1 | S = 0 | Stoichiometry = C19H34ClRuSe4(1+) | MND = 9
Ru        5.20301342848582    4.84742141487490    1.69458452028882
Se        6.55933316273748    5.45579406512783   -0.21116057289028
Se        5.56690838236288    7.00778613257185    2.71321845442490
Se        7.50547002685791    8.60489769304833   -1.65489914871150
Se       10.68990536954807    7.35889393600816    2.19007256972172
Cl        7.18304316134820    4.17445492083847    2.75373352747161
C         7.97736701668308    7.69191181846728    1.09336422786082
C         8.18576996392561    6.31776832941846    0.45206700783777
H         8.63865011629953    5.62102028573856    1.16434659060386
H         8.83299380321873    6.41771919099003   -0.42631275302647
C         7.44581253259121    7.56073596100650    2.52588905330498
H         7.50600684340254    8.52747263447816    3.03696164375024
H         8.03402411173246    6.82084738315355    3.07940044659051
C         7.02254515399855    8.54701007776399    0.26031117670181
H         6.99090424067287    9.57313870391325    0.63317424166267
H         6.00999215898600    8.11886802310581    0.30737395403447
C         9.34227511054796    8.38666768335091    1.16139281501317
H         9.25302487841419    9.36729532110820    1.63465038749822
H         9.74058296994234    8.51940172278600    0.15056285742202
C         7.42673440205567    3.80298263463173   -0.72550356305201
H         8.22387421524825    4.03972096858469   -1.42979882368125
H         6.69135483158902    3.15908870481468   -1.20665957893372
H         7.82817765260054    3.33455786036413    0.17254920619331
C         5.66827696586704    6.64071788575513    4.61248811494271
H         6.34045828606807    5.79673403909750    4.76181175548931
H         4.66627035393621    6.40678712683204    4.96924659869433
H         6.04135527544192    7.52922343908146    5.12005602772800
C         5.87820325664207    9.47905980992840   -2.26149693042747
H         5.02803738760949    8.83376641539773   -2.05688619889712
H         5.98103548202251    9.63530366598863   -3.33187257296682
H         5.77487188220512   10.43552525209379   -1.75551279501489
C        12.17846588145855    8.56091780472820    1.85714607073728
H        12.35629103883498    8.61954051809374    0.78632180312177
H        13.04692577307472    8.14118876672085    2.35767091916534
H        11.94864971799449    9.54072302134965    2.26797405630171
C         4.28679865333385    2.76764961770151    2.43190410028913
C         3.67466461032183    3.84746749388332    3.10588412966523
H         3.59674060328018    3.82104591682914    4.18790019938260
C         3.03480635713754    4.88036836625696    2.38294498248681
H         2.47687864452157    5.63977121775169    2.92633633779620
C         2.99954100571929    4.88311440066755    0.97125837407271
C         3.71936634355176    3.86600776012387    0.30666165181891
H         3.70438682082331    3.82089131707628   -0.77887224466151
C         4.34845455011397    2.81908250487164    1.02383190899783
H         4.79034827648675    1.98890177319750    0.48200621004650
C         4.87759530729865    1.62662120605197    3.19013508260019
H         4.90927805932957    0.72653003858796    2.58073361966405
H         4.31210859007065    1.43086097052652    4.09854270945997
H         5.90261122543241    1.86651146736769    3.48426992174908
C         2.20837779363078    5.92347905472637    0.21468852846573
H         1.61552755515854    6.49110426357436    0.94078812027676
C         1.24869484823353    5.26954362696461   -0.78219032281639
H         0.59080800447668    6.02473047324553   -1.20311064258380
H         0.63494929459677    4.51898758539750   -0.28944875268745
H         1.78653559701321    4.79811016804169   -1.60073482079887
C         3.15326713346448    6.89911609152491   -0.49134288956383
H         3.79554819553961    6.37466392068869   -1.20074944963978
H         3.77951030773106    7.40791293499267    0.24604601551144
H         2.57949738831828    7.64748461874899   -1.03134785846556

