45
CSD_code = QUVXOV | q = 0 | S = 0 | Stoichiometry = C18H18Cl2F2N4Pd | MND = 4
Pd        1.20780769278855    2.29878645289658    2.24964188043213
Cl       -0.62227384445222    2.99106136624885    1.06438410233385
Cl        3.06174979522743    1.65105235997938    3.42642971152821
N         0.04626637015797    1.30253620430169    3.50324907778724
N         2.38505528373397    3.51017591357439    1.23968303897093
F         5.82242363973257    2.21104008589823   -0.51027432343160
F         1.15353859153325   -2.03701725175677    5.55308019719852
N         4.14251403042737    4.35777783132878    0.18627571763322
H         5.06851499325234    4.27648768357413   -0.19591579574577
C         3.46311149112511    2.02112447572719   -0.32402609061501
C         0.98792411327369   -0.92384112319731    3.45947286078589
C         0.10158529715026    0.10888270205867    3.99325606650996
C         3.33682882554868    3.28636828768172    0.39913607835664
C        -0.90521133235063    2.09747658795548    4.26935985147466
H        -1.72392720878826    2.39654884723197    3.60516341170268
H        -0.41043897153488    3.00552418317556    4.64170013361790
C         2.82088419491874   -2.77562860067521    2.44306977726575
H         3.53876108452444   -3.48120620627094    2.05460248294114
N        -0.76215680987748   -0.09911940934229    5.01801329283129
H        -0.67242117132375   -0.85828064900936    5.66974860805119
C         2.50457527548003    4.86381972256547    1.76103223924737
H         2.53198282657459    4.83627059578737    2.85928309849889
H         1.62618656117840    5.43860230278066    1.44217007025500
C         1.52026612317958   -1.93774947140300    4.25377973810023
C         2.41048946093683    0.07698119205839   -1.29800097184334
H         1.51269345987442   -0.47566173674045   -1.53030295330376
C         4.68903675735215    1.51454805167932   -0.75093593569198
C         2.29283598607103   -1.79147062772851    1.62167356539392
H         2.59781157518221   -1.73226828619438    0.58872724228777
C         1.38776471895968   -0.87462420110786    2.12040942337764
H         0.95587587127583   -0.10970234812975    1.46973043809035
C         2.42814337682011   -2.85672908606724    3.76669176558312
H         2.82100079246222   -3.61103717630506    4.42989886238750
C         2.31659328347672    1.27293977648112   -0.61000447391771
H         1.34281147873535    1.67286898338998   -0.33282510956692
C         4.79524685039622    0.31269048483459   -1.42332158669179
H         5.76958734146771   -0.03840826703481   -1.72427972669027
C        -1.37659716768772    1.15837226464392    5.40128573254448
H        -1.02561775915865    1.48695997882967    6.38606678024891
H        -2.46428563653985    1.05601871218546    5.43148001422347
C         3.81439913491828    5.40172189372733    1.14119449649578
H         3.67208369383827    6.35482675575861    0.62622587063704
H         4.60639824359957    5.51669319369633    1.88961509982638
C         3.64669768320130   -0.40755425066149   -1.69967040046984
H         3.71898400334983   -1.34295819841705   -2.23347335865523

