49
CSD_code = QUVZUD | q = 0 | S = 0 | Stoichiometry = C22H26Pt | MND = 6
Pt        4.25279279274260    1.98560412856511    2.94105988198763
C         5.12991602793821    3.99566948397113    2.14964801636366
H         6.20653123204215    3.90720653820279    2.24243113956241
C         4.40820220001680    4.17142318820460    3.29595664462865
H         4.96147692726287    4.24809594094122    4.23430824104874
C         2.97904202733550    4.63967645470508    3.41843411338478
H         2.96987872653628    5.73541691470378    3.43930855907002
H         2.59753177920184    4.29630890859832    4.38545913354321
C         2.02354274309547    4.13959613665153    2.31866683682020
H         1.00156535208350    4.26600135877830    2.68349025367807
H         2.11925186340661    4.74576395771757    1.41768907841172
C         2.24182874497795    2.68584191920039    1.99375464318680
H         1.48101832585810    2.01958940290209    2.38484748626901
C         3.09931706373154    2.18591956741469    1.05529685438567
H         2.94571932483623    1.15523873383441    0.72882366356440
C         4.00701730514246    2.96313403215205    0.13400797101955
H         3.44296370271518    3.23615674984999   -0.76515002466862
H         4.81290902241899    2.29326982753774   -0.18293298985922
C         4.64266640113612    4.22659903964539    0.74405656777513
H         5.49549169834914    4.50410027902011    0.12018274330232
H         3.94299021176245    5.06221534780784    0.72005601157076
C         6.08735142468390    1.38265792163915    3.70878320574276
H         6.58077795294714    2.16632620478947    4.29746956278653
H         6.06701101390129    0.46402907035699    4.30081484973512
C         6.79162295820998    1.15745362016218    2.42089070354283
C         6.39043939719284    0.12152148138899    1.56501892633038
H         5.58953797685793   -0.53674153296879    1.87912937856775
C         7.00244732842104   -0.07088927348417    0.34274624952733
H         6.67123930757270   -0.87178266876600   -0.30362083707791
C         8.03808520076767    0.75818705850900   -0.06195230851759
H         8.51128978122558    0.61103704110335   -1.02181794589014
C         8.46715792727315    1.76847615454697    0.78098161997079
H         9.28603421249615    2.40878791055713    0.48325825477876
C         7.85680772094266    1.96170443377086    2.00674181605534
H         8.21983073661152    2.74207880585167    2.66359063793855
C         3.40026362689755    0.24005169181177    3.67997092721586
H         2.81261912238712   -0.29880832579716    2.92597947325339
H         4.10061528209958   -0.46139850377747    4.14082069306833
C         2.51971452586659    0.84725988466874    4.71020264352168
C         1.12637768103329    0.81000646598128    4.61133413888495
H         0.66644798891570    0.27973299307028    3.78702561686437
C         0.32385687379856    1.42373623144151    5.55562123714744
H        -0.75173417055980    1.38337267997412    5.45252900412807
C         0.89068484482002    2.08353978773694    6.63204193364318
H         0.26367921068462    2.56752346461633    7.36657775545012
C         2.27109265280685    2.10773096329551    6.76455544322218
H         2.72109900591712    2.60925958971343    7.61007918031297
C         3.07404591468318    1.49705629136638    5.82225268635460
H         4.15125102896174    1.51056264802937    5.93738032839641

