38
CSD_code = QUWBEQ | q = 0 | S = 0 | Stoichiometry = C13H23ClPt | MND = 6
Pt       -2.38648169451742    1.63113756360866   14.98834922062493
Cl       -1.20354475705115    3.25646365903636   13.94117320238901
C        -1.99345064875008    2.54020794568541   16.80563588527362
H        -2.19203383103108    1.80751917358656   17.59753331195217
H        -0.92864733254734    2.79521774276748   16.84788309378078
C        -2.83818056349355    3.80004292452832   17.07393733484764
C        -2.07022126463375    5.06640572918282   16.68661751005072
H        -1.16257563746786    5.15689392086727   17.27888470570281
H        -2.68129584078479    5.95014687595667   16.85863473688965
H        -1.79310043338829    5.03501889765246   15.63783157636373
C        -3.16594184448905    3.86969430296305   18.57253160269933
H        -2.25173050079524    3.88167048834171   19.16141841831937
H        -3.76305094141925    3.01379052052909   18.88105256587444
H        -3.72643750529330    4.77546692553262   18.79392621008748
C        -4.15660754379986    3.75862569484114   16.28476242654709
H        -4.71228705774318    4.68304923931287   16.43258009352869
H        -4.78180890110814    2.93196990282357   16.61651921664673
H        -3.94843609766864    3.65497746629301   15.21391827687458
C        -2.55032260183475   -0.32454508574347   15.80869643702382
H        -2.04245188945671   -0.35453152055693   16.77376032238779
C        -3.82629527120869    0.23766881072656   15.77701686614417
H        -4.21119092470652    0.61101371693602   16.72359649112439
C        -4.89845534676372   -0.13946538760471   14.77551175698391
H        -5.87604980843061   -0.00887409978289   15.24397140446336
H        -4.80315932521890   -1.19912289021619   14.53435497194841
C        -4.87381341072227    0.71318555140268   13.48891212522937
H        -5.37164384639693    0.16534065375634   12.68171486842672
H        -5.45450188662650    1.62216003518093   13.66399258764351
C        -3.49883443736239    1.12429234064725   13.02365353568812
H        -3.46474385989672    2.08097848289260   12.50471858972742
C        -2.40200073624721    0.33150733072302   12.97233812450677
H        -1.51641956433792    0.70406639667054   12.46635684044545
C        -2.37594796480602   -1.12078399889208   13.36053998522519
H        -1.64215531411669   -1.63857506370015   12.73912403387004
H        -3.34726133573213   -1.57091089348823   13.15499810626130
C        -1.98253291794565   -1.32971961554977   14.83580316590343
H        -2.28057924767898   -2.33483474017636   15.15437515483359
H        -0.89230791452074   -1.28074899672245   14.91527524373211

