38
CSD_code = QUWBIU | q = 0 | S = 0 | Stoichiometry = C13H23BrPt | MND = 6
Pt        1.14509468755243    1.64589188711407    2.31062576841820
Br       -0.58477512957080    3.05943476484720    3.16209423406038
C         0.96802050897662    2.50113115753313    0.43079385376939
H         1.23202960905397    1.75081276984323   -0.32541223406375
H        -0.08121287153538    2.77661637283182    0.27585486504821
C         1.84486877408553    3.73987538423691    0.21226770500534
C         1.60151105071599    4.23435581594355   -1.22156079137732
H         2.20952659744827    5.11345593956977   -1.42311070138995
H         0.55683533187279    4.50059240307480   -1.36126650190654
H         1.86015244332456    3.46445823040494   -1.94561893609297
C         1.49736501003355    4.86656534446689    1.18766068804752
H         1.73717867757945    4.57122867162123    2.20967982925479
H         0.43996812079033    5.11125671091966    1.14006057139810
H         2.07001741089821    5.76069205086916    0.94905361525746
C         3.33175591418384    3.40593843111200    0.37578947891205
H         3.64437523814535    2.65083862643471   -0.34271905028632
H         3.52413016909905    3.04208120514654    1.38653383256545
H         3.93454443555897    4.29754507956729    0.21451606320126
C         2.77996531822647    0.33613218770702    1.74610386109257
H         3.23679557051874    0.68657412436081    0.82559544113871
C         1.55923481028412   -0.32075951629357    1.60385810292331
H         1.16289947717749   -0.41278788373416    0.59052157005468
C         0.94309396485075   -1.32607560846530    2.54514187270063
H        -0.13896514217147   -1.31829375304398    2.37436743345287
H         1.29997438783820   -2.32406310908835    2.26690678087679
C         1.20393855420762   -1.08708766873645    4.04413185208220
H         2.19105508898748   -1.45230245375825    4.32660158562620
H         0.46974558948829   -1.66434102795913    4.61043061858026
C         1.06880247863952    0.36241141969897    4.40973746022227
H         0.10459867872361    0.65843390456371    4.81043503329637
C         2.08041643971932    1.25913728074396    4.42157156910332
H         1.90537115220310    2.22378938809970    4.89877877964786
C         3.52913716680237    0.97357547621740    4.11048381954587
H         3.99027853316475    0.50224450521653    4.98510879183560
H         4.03698427041678    1.93038741796216    3.96154301348817
C         3.76848923229049    0.09196293021984    2.86733764592238
H         4.77350006746901    0.30396050257490    2.49598319502863
H         3.74969838291676   -0.96506896184029    3.13691928350728

