28
CSD_code = QUWFIY | q = 0 | S = 0 | Stoichiometry = C11H10Cl2N2Se2Zn | MND = 4
Zn        6.35698512936755    2.61823662202398    2.90256323967191
Cl        7.63330371988449    4.34860305763226    3.33516778064671
Cl        4.44399041294637    2.51542082492475    1.84321683445809
Se        8.49212805277648    1.07746270569114    4.75316819421322
C         7.62163779670355   -0.61341517111206    4.19702693320809
H         7.23034869762517   -1.10334935665721    5.09033590168248
H         8.41868405223623   -1.21813682797327    3.76067130388703
Se        6.10741978448138   -0.57261716609063    2.91609013308200
N         5.92523529643587    2.07840399237089    4.94823920513671
C         6.98760226277211    1.80724392945950    5.69335647929747
C         7.02391667186775    2.01973634631618    7.06223211052285
H         7.92289310145507    1.79786423052666    7.61752623259888
C         5.88857520488394    2.52707785525968    7.67275146840798
H         5.88129189905241    2.72164587531241    8.73486546280143
C         4.76256982832230    2.77019858411616    6.89951457893315
H         3.85593729291051    3.15266768865969    7.33984111588725
C         4.82554333603652    2.53179828698571    5.53706318602998
H         3.98408528034478    2.71138572171268    4.88163887264626
N         7.53566114193327    1.38043387167007    1.58681159934424
C         7.10494514441355    0.13579888248570    1.43679379195719
C         7.36392227314924   -0.62025173965167    0.30478943045875
H         6.97395218685175   -1.62397465894943    0.22704209804096
C         8.11992699539196   -0.04484659841361   -0.70369140795995
H         8.33315584916398   -0.59612509200363   -1.60739627177143
C         8.60578290098379    1.24258871461648   -0.52733103085215
H         9.20899195526309    1.71904666987277   -1.28314567654479
C         8.28723732392848    1.92168249889549    0.63651703910546
H         8.62867640881944    2.93002025231698    0.82754139510680

