53
CSD_code = QUWGOG | q = 0 | S = 0 | Stoichiometry = C18H18FeN12O2S2 | MND = 6
Fe        3.81071373539667    3.23018186707411    0.70143792390841
S         0.41277231768206    5.50652408834315   -1.28434834623486
S         7.24262099126071    0.97304484604213    2.64802526983530
O         3.58971865808596    1.88427221014792   -1.12577081591288
H         4.03302106766020    2.13584628928601   -1.94185373956983
H         4.05903881578028    1.11606556745446   -0.77568346553377
O         4.03173069968821    4.57070825096179    2.53094762401857
H         3.59309441379821    4.31367334617404    3.34783682876982
H         3.55814678832514    5.33840953387141    2.18559577199831
N        11.21758830362589    3.94049330520996    4.29923896398728
N        11.84943081984635    4.90005398677522    3.58972561198932
N         9.91792393298562    4.52313817659003    2.64070621384253
N         8.81641056901987    4.51998451437582    1.88334755318970
N         5.26977134156407    4.21157662013413   -0.13105306301465
N        -4.23260405633197    1.62548563087668   -2.18810659044982
N        -3.60705532985213    2.60860140418552   -2.87058858786095
N        -2.30290570350954    1.98743810536581   -1.22968529030183
N        -1.20145885020196    1.97725991315925   -0.47267407491344
N         2.35150476229144    2.24547530092717    1.53167927772710
N         2.59583478696340    4.59027697092528    0.13117288785233
N         5.02703048958869    1.87169158634284    1.27247733173141
C        11.09126846241969    5.23989001329323    2.59998448877096
H        11.32663743136503    5.98975114104547    1.87406944389272
C        10.07057192781875    3.72284980116210    3.74798648375023
H         9.33231004381606    3.01383270594005    4.05833831609460
C         8.76075943476368    5.08254343350934    0.74445469592034
H         9.59950931911375    5.60655189051359    0.27782472417020
C         7.53160312375869    5.00174029391779   -0.02052014651575
C         6.40491196102039    4.39442157223719    0.53243169606474
H         6.44875124438377    4.02495566095893    1.54500627499484
C         5.19608548081149    4.68359614318813   -1.38321518927306
H         4.24270507545193    4.56222452161478   -1.87681151302300
C         6.24849743284951    5.32907031345509   -2.00663333154884
H         6.13120165470663    5.69807304909676   -3.01321607617627
C         7.44604514501144    5.48673761956570   -1.32856395259843
H         8.29159904422736    5.96814742643109   -1.79600432180038
C        -2.46098071013297    2.81743802320379   -2.31421615569083
H        -1.72634769675980    3.53874512911845   -2.60415514333642
C        -3.47194192274929    1.26269531384099   -1.20861497876098
H        -3.70192760213282    0.49115260831436   -0.50411693530698
C        -1.14102516984443    1.38632591716611    0.65148209597488
H        -1.97591453269133    0.84589458033681    1.10615165762464
C         0.08951160301984    1.45606618232771    1.41557710093140
C         1.21451975466512    2.07193467108572    0.86877337483344
H         1.16756764271021    2.45614363926796   -0.13812709418079
C         2.42813549816644    1.75656872425835    2.77712665484611
H         3.38239942075543    1.87246626054626    3.27027526697738
C         1.37762922631346    1.10123935883247    3.39356150632764
H         1.49745595318635    0.71805709960381    4.39453866486891
C         0.17873230908895    0.95169486017942    2.71597449369747
H        -0.66518817772668    0.46257336628705    3.17831394484753
C         1.66345088772570    4.95649954362919   -0.48876188567829
C         5.97403818121467    1.51331762184593    1.87465855423411

