80
CSD_code = QUWJOI | q = 1 | S = 0 | Stoichiometry = C38H28F10NP2Pd(1+) | MND = 4
Pd        1.75743909616895    8.93375929358595   13.01507410653742
P         3.89463455814914    8.86536363076821   13.98773520737837
P         2.19793424408297    6.97344115318553   11.99829065996141
N         1.06003504061032   10.73855520785697   13.84862271684371
C         4.93649737362757    7.36295904914397   13.82335096092453
C         5.90916462158939    7.21036384838585   14.79050991281985
H         5.89560867727917    7.83457333412996   15.67192877934788
C         6.94772740721792    6.28649414873558   14.65767354400070
H         7.67473274357835    6.18353941800101   15.44751956583386
C         7.06322470480867    5.57790860902534   13.49610168276405
H         7.90277122039630    4.92012464035917   13.33235089135577
C         6.24856731984081    4.95964610119098   11.28684018849254
H         7.13376628360431    4.35383889725390   11.16923414537386
C         5.30161581209911    5.01038553542864   10.30546436247399
H         5.42808326013382    4.46938114530790    9.38123165656722
C         4.11901801801730    5.71880601600213   10.53545333096130
H         3.33516965376884    5.66403140683656    9.79341549556686
C         3.92133374577465    6.45520785528053   11.68448438309913
C         4.94788682162373    6.53046211258752   12.66825196231933
C         6.08939950403718    5.68994462726680   12.48313509170417
C        -0.06522184810846    9.00826362328495   12.16895952355650
C        -0.44296481284806   10.32161852791207   12.00260831244068
C        -1.99963989387696   11.99566100105550   10.99958201779840
H        -1.38715956170220   12.81603793733829   11.34006506722616
C        -3.13052706764887   12.26236644000721   10.27852569100765
H        -3.40504772315557   13.28469697519170   10.06744320345437
C        -3.94083840801604   11.22079592922428    9.80339224226339
H        -4.82955348148443   11.45383958048776    9.23789823921535
C        -3.60052578448343    9.92256217096956   10.05643265576676
H        -4.21330438685046    9.11029840745159    9.69478623231950
C        -2.08029416931211    8.27911484697960   11.07065554840043
H        -2.73803273449563    7.48564578994970   10.74682653639535
C        -0.91923938311801    7.98323983335207   11.73138140686919
H        -0.68380629388059    6.94713679848763   11.93783732012150
C        -1.61678468112914   10.66550465478183   11.27930427080500
C        -2.43787946394380    9.61260143298442   10.79243007372693
C         0.43274732148533   11.36549954593034   12.65538887450843
H        -0.16827143521187   12.22408606306097   12.99083939034679
C         1.49812712347690   11.84414323108513   11.66044670003487
H         1.90828621142458   12.81282265913492   11.93575073641980
H         1.05159842533486   11.94072505853060   10.67332809999485
H         2.31146067085384   11.11099630778465   11.60324644830207
C         0.03705511989725   10.39834552642727   14.84793505700290
H         0.50572434635759    9.89689116653380   15.69784701752236
H        -0.72296429597531    9.73900489389650   14.42605763638575
H        -0.45706527327593   11.30619782549839   15.21611161648907
C         1.98572690338272   11.68152993525490   14.47895657589437
H         1.46422841694199   12.60869546019263   14.74594638355669
H         2.80549396598866   11.92605195044488   13.80677390721112
H         2.39381918192337   11.24852078127375   15.39430322997582
C         5.20447143765691   10.12172073164925   13.74885431758606
H         6.13963249437425    9.82558524852516   14.21969808431732
H         4.89604183665691   11.09324473971423   14.12819802840285
H         5.35896145906510   10.20006836279892   12.67069784875851
C         1.56192145339927    5.39776709592214   12.65415156948890
H         1.73086503928227    4.58942741481842   11.94386688676395
H         0.50535325413637    5.46818342881397   12.90358070577213
H         2.11759280149841    5.19188358849201   13.57035395471515
C         1.57848505810340    7.19932391150448   10.28316448930319
C         0.65984197173775    6.44297248216390    9.56791793950764
C         0.13491397256969    6.89602698811935    8.35895856903200
C         0.52482407827896    8.13268988951211    7.84840938072765
C         1.45399773835806    8.90790631002054    8.54511974890960
C         1.95885110641523    8.42121618603597    9.73858979995651
F         0.25768717044843    5.26400240963506   10.04482484286684
F        -0.75178645295838    6.15708766501204    7.70237639175508
F         0.01028047273645    8.57532435412665    6.71069492419779
F         1.82658469678832   10.09734047477019    8.08231496807812
F         2.83408357039785    9.15506591095939   10.46338469492253
C         3.55774360463371    8.78998969219595   15.80486460748474
C         4.20992817338214    9.46588940353677   16.83207297071031
C         3.81254627473421    9.34706011290641   18.16265953380449
C         2.73226187566792    8.53321572405494   18.49846495031895
C         2.04869544618590    7.85557394098767   17.48823748237200
C         2.46672935434989    8.00426054942642   16.17320874529332
F         5.24900945410212   10.25796624835181   16.55526224242872
F         4.46754649506432   10.00939534398453   19.10855941285889
F         2.35253354813059    8.41157604456022   19.76074281509801
F         1.00310981552712    7.08814575110944   17.77717592163296
F         1.77183570431425    7.37800961146083   15.19406551359341

