29
CSD_code = QUWPEE | q = 0 | S = 0 | Stoichiometry = C13H9CrNO5 | MND = 6
N         7.31564932735191    4.92712324801813    4.82417730929210
H         8.23434351790698    4.81054415880641    5.23948637156978
Cr        8.73789344396509    6.64971919374578    2.80240126809976
O        11.01315030894658    8.11008634177377    1.46533167893662
O         9.05465909287444    4.14523378671812    1.15453188732765
O         7.01575599894339    7.92509650899427    0.68104279249720
O         8.00175564722002    8.86113748355547    4.71208274851140
O        11.01968522351213    5.78481913653942    4.56233806428963
C        10.13099307375544    7.56195965740147    1.95978764888400
C         8.96168307099902    5.11996489075104    1.75715982170000
C         7.59277607822158    7.39355907082939    1.51860197859572
C         8.32698327530084    8.05194598118622    3.96244742547507
C        10.07750144778518    6.05411281026691    3.95397436634379
C         7.22110651921189    5.66802157220315    3.74392495676948
C         5.85921318865236    5.84112977806511    3.20929148720222
C         5.44876674024819    5.14938476237922    2.07031738810282
H         6.12106301483506    4.43769037484885    1.61145444045657
C         4.19584175788460    5.37316775677532    1.53169747277903
H         3.88821063881586    4.83022288222565    0.65048889462508
C         3.33968998206279    6.29460159302301    2.11287058632261
H         2.36592390056675    6.47490646544260    1.68355762047632
C         3.73983644905739    6.98692971189610    3.24336470645128
H         3.07774542801443    7.70785694155508    3.69953848965718
C         4.98618795970796    6.75699131817563    3.79623584427031
H         5.30157705662197    7.30424389637063    4.67386910644418
C         6.25583181524605    4.23257947222083    5.53093276790367
H         6.09349996904193    4.68636255667578    6.51069758736397
H         6.53257098367178    3.18739998880129    5.67421735986052
H         5.33250508958469    4.28470866075014    4.95787792979262

