37
CSD_code = QUWVEK | q = -1 | S = 0 | Stoichiometry = C14H10AgN4O8(1-) | MND = 4
Ag       10.74347325819423    2.85733322485925    9.78216710806068
C         6.95108863950785    4.91094796500198    4.24017934172574
H         6.41319419522135    5.22387791164013    3.35790240380083
C         6.29584228735582    4.58313481651183    5.39485441888435
H         5.21681867930016    4.63239810673169    5.44391316627639
C         7.00556936265741    4.17580815091715    6.54423111247922
C         8.42319785953988    4.10578948453181    6.48277577584949
C         9.07013887578500    4.43965397800626    5.31348919069659
H        10.14786512711130    4.38303312731621    5.27671366789889
C         8.34876964390513    4.84403836676582    4.18901525360310
C         9.24155286437607    3.66553926455652    7.66683377748107
N         6.37409910564563    3.86221104613599    7.68117332282045
H         5.37260178884610    3.88153967994186    7.74466506952660
H         7.00037094894088    3.56759641569615    8.44291786087435
N         9.01527091842908    5.18687036569272    2.99266195136051
O        10.23528419174161    5.13194289264309    2.96073845136542
O         8.33690001383112    5.52623679025361    2.02828018027638
O        10.47607897569447    3.62149785997360    7.54419207395416
O         8.64654847513461    3.35606228864779    8.73630788316230
C        14.53577896547338    0.80409253261288   15.32435991010355
H        15.07366486234366    0.49126544172944   16.20667276937861
C        15.19103792877176    1.13187348874608   14.16968723090749
H        16.27006214508852    1.08260615760052   14.12064306449175
C        14.48132397776846    1.53915871074954   13.02028427033438
C        13.06368700637527    1.60912221217745   13.08170014429469
C        12.41674031403862    1.27536428152642   14.25101526367822
H        11.33901662044002    1.33202362714903   14.28778634950518
C        13.13811212980262    0.87122876259801   15.37557741691199
C        12.24532114221257    2.04898235739763   11.89750860477039
N        15.11280356865837    1.85271592657075   11.88333390339164
H        16.11430242875168    1.83345477638402   11.81987308723146
H        14.48653351101164    2.14744339684922   11.12163151257334
N        12.47162843581050    0.52918336351522   16.57216409519005
O        11.25156733633925    0.58278351703575   16.60370469292216
O        13.14995661311384    0.18838823980473   17.53610412665102
O        11.01081032644417    2.09333826868668   12.02023802897092
O        12.84038747633772    2.35926320304339   10.82830351859573

