67
CSD_code = QUXFEV | q = 1 | S = 0 | Stoichiometry = C22H38CuN4P2(1+) | MND = 4
Cu        4.91313670479316    1.20083581984642    9.15863348979085
P         3.29564885297567    2.23040936338857    7.87964118104468
P         7.06521289650993    0.93556544744707    8.37733960395698
N         4.29309576022612    2.36079823024266   10.70565261848593
N         2.70404658569469    3.13012875890861    9.19840842824855
H         1.87573571996918    3.70099609371776    9.06893984916482
N         4.98953417166534   -0.74008432611167    9.75059246219199
N         7.17276823207867   -0.65857638033005    8.96538135354457
H         8.05565984812532   -1.15132229850754    8.88489127871924
C         3.21723494429596    3.11270199167894   10.46847191129531
C         2.61977763911719    3.86953416594957   11.48628073532020
H         1.75109932970450    4.47202460303032   11.26980171125502
C         3.15895849438298    3.82637687333622   12.75241334898026
H         2.71687781625289    4.40109923375358   13.55119800361395
C         4.27838841163936    3.03142556838476   12.98852683980236
H         4.72390832718952    2.97326700618567   13.96698436014342
C         4.80403960281227    2.31864046076596   11.93382943049867
H         5.66905976444717    1.68261112758008   12.05647758842160
C         1.67328126663748    1.60002988889711    7.21391053037967
H         0.94353821018943    2.41980179816665    7.21690169932745
C         1.84341520754908    1.06119146524234    5.79854996508837
H         2.61934086785153    0.29759395272569    5.77314163661431
H         2.10865002369754    1.85087680880262    5.09950708428288
H         0.91335855499693    0.60981475619233    5.45899156864973
C         1.20275481176172    0.50099347495486    8.16358816210836
H         1.90886344400644   -0.32849501052366    8.15238697601841
H         0.22765509933649    0.12567878705531    7.86063498894411
H         1.12323824552550    0.87420534278366    9.18449197645732
C         3.79549096730798    3.59482770535872    6.70438204981121
H         3.99271110154605    3.10570284758284    5.74386693014049
C         5.10489092784546    4.16869706085753    7.24048207514328
H         5.50635536594773    4.91508332731948    6.55859273251890
H         5.84449096568146    3.37506801399451    7.36681513834512
H         4.94493164220931    4.64038150786436    8.20962731735455
C         2.74996177346170    4.68745592608998    6.51038013602949
H         2.57841054704774    5.23157192508807    7.43711354054448
H         1.80512846788606    4.28508092163403    6.15264637131512
H         3.10771319663321    5.40184804393086    5.77156969780513
C         6.16945620418403   -1.34341361418645    9.59850267089081
C         6.38771672651102   -2.64489434832926   10.07214780558074
H         7.35050679367902   -3.11282040812607    9.93598683517672
C         5.35936306123635   -3.30370299604293   10.70777191395496
H         5.50370829850118   -4.30613567923428   11.07945078882229
C         4.13416335169621   -2.65979730958832   10.86643378894083
H         3.30973559481856   -3.14534256589380   11.36017211271062
C         4.00279701438404   -1.38069894769144   10.37292973990600
H         3.07802085879777   -0.82982916006473   10.46901266832532
C         8.69124733043659    1.58401158219209    9.01634200801906
H         9.47090712517669    0.83306480730273    8.83553525509759
C         9.05989718531976    2.89210182605842    8.32688673386776
H         8.25771334473419    3.61991791291594    8.43852537238375
H         9.25175091950564    2.74482838168366    7.26669780796371
H         9.95911405760301    3.30808191370036    8.77678113137660
C         8.52471054022748    1.78802507281874   10.52026539064219
H         9.46017102455531    2.11730129030887   10.96740306149037
H         8.21948613591054    0.86274271557484   11.00864703960415
H         7.76662378820757    2.54664666194934   10.71136466726696
C         7.34283104777654    0.66846601963342    6.54857175466224
H         7.50087626052562    1.66496300249032    6.12110093891804
C         6.04047908193799    0.09740169900363    5.99263020936243
H         6.09322901683036   -0.00062947639768    4.91057088828767
H         5.20093089511460    0.74883381600157    6.24534228237901
H         5.84523343294463   -0.88702728116670    6.41705561057168
C         8.53045904728882   -0.22353447070929    6.20462015515868
H         8.37427682143000   -1.23751081575426    6.56740152896771
H         9.45984739397649    0.16334361268806    6.61559398688672
H         8.64148385844604   -0.27553352497960    5.12331108119190

