54
CSD_code = QUXKIE | q = 0 | S = 0 | Stoichiometry = C26H21NO5Ti | MND = 13
Ti        2.95072275021626    5.14843539151611   15.43398967484254
O         1.43630088609807    5.19272903383644   14.16965304371037
N         3.17381975434342    6.86465838873768   14.25504120355139
O         6.11185892961636    7.71976045833406   15.90430814621651
O         3.49529278065432   10.23899610568741   11.94535903142695
O         4.61288905110235    6.05825940375425   16.02463983922404
C         4.39541192581972    8.83423827851171   13.70949796756277
H         5.26117700490378    9.43904992819709   13.92540143545251
C         5.10211220187279    7.14249220966450   15.56038971214177
O         0.24370550760520    6.13614915933263   12.52645575751742
C         4.20681116210533    7.67716668183159   14.44198282228968
C         3.45216018546507    9.16209859828438   12.72548912735617
C         4.34089260819454   12.27961010875111   11.09738009475366
C         1.18037336764035    6.08744398360323   13.29321107508260
C         2.36384907354369    8.28919074178062   12.53682351884987
H         1.61473769780339    8.50212326436595   11.79163791828480
C         2.26930600380483    7.16202750213668   13.32148301232887
C         3.89903264369500   14.32024806206584    9.22494734071061
C         4.56394072342578   11.17265440467876   12.09136443330197
H         5.51991077542148   10.66853579673072   11.89230673334112
H         4.57706141257196   11.56996689159426   13.11321873734210
C         3.67124658282867   15.34311419910707    8.21135587422565
H         3.58430844322035   14.96073293582720    7.20156555501972
C         0.72584514060664    5.49951402171534   16.57655361450324
H        -0.24166048249597    5.45627909356372   16.09752015264865
C         1.43172285556140    4.40939655159885   17.10438975809220
H         1.05041727516407    3.39940468578232   17.18580403620410
C         3.95615437953170   14.59954666326750   10.59058557588226
H         3.82384498863104   15.61126121052320   10.93992646856245
C         3.57224557707948   16.65172933643809    8.41180858741243
H         3.65629810604122   17.10254482350311    9.38561259259967
H         3.40348613077435   17.33041439988629    7.59359962258942
C         1.48555397736884    6.66592749848427   16.79901306488456
H         1.17632224945573    7.67611541414925   16.55902227293340
C         3.57445093206772    2.83349876435711   15.71226037001774
H         3.34848103309100    2.19387850976097   16.55570853721083
C         4.28579419264050   11.98931183877671    9.73965597319427
H         4.40924781120215   10.96896567192494    9.40864293266134
C         4.76423970606325    4.06772421789906   14.21077448008826
H         5.58563206852361    4.58446116615830   13.72921504015482
C         2.61126808556219    6.30942092264544   17.57080853277131
H         3.32098884213678    6.99526142661853   18.01356607477829
C         4.06411694076288   12.99371340517624    8.82034056490608
H         4.02065928501265   12.75234953738459    7.76794694238350
C         2.60848116016575    4.91263062939299   17.73051899941449
H         3.28279617670856    4.35462153324834   18.36826718195248
C         4.16859960362667   13.59322067013455   11.51189651035592
H         4.20280891005942   13.83168566762555   12.56531780517597
C         4.79153421236764    3.50619596364680   15.50209905122612
H         5.62481170543556    3.54866895254983   16.18888705036719
C         2.80632641793725    2.94117342809021   14.53196945350585
H         1.86309782088506    2.45041864767711   14.33335216849287
C         3.54104738748270    3.70737707013474   13.60469572691252
H         3.26156603859596    3.89200674955779   12.57443880358060

