88
CSD_code = QUXTOU | q = 1 | S = 0 | Stoichiometry = C46H36AgN2OP2(1+) | MND = 4
Ag       -0.80377491065951    7.73684713364954    5.72765966835184
C         2.00067239996190    5.36476270727478    6.34657010428689
C         1.79451956641208    5.07384537984443    4.99485173814729
C         2.16696748974438    3.85368344702294    4.45946934427605
H         1.99191154701036    3.64776854980188    3.41388731224291
C         2.75883140463251    2.91261718431934    5.28755347979548
H         3.05912260408699    1.95974774882192    4.88040399522892
C         2.96322717842589    3.18805898953246    6.62977536963763
H         3.42667388620604    2.44883799104929    7.26486843707009
C         2.58152909160373    4.40736252023693    7.16561964565590
H         2.74673191530962    4.61793887660811    8.21213834753081
C         0.89770299270699    7.55883601631336    2.53486572662306
C         1.73483645068273    6.65944190820158    3.20600722389732
C         3.05383148259071    6.49918083456945    2.82160904551962
H         3.69798676740985    5.81235551883571    3.34976509658040
C         3.53838159351597    7.24805129249001    1.76079701396372
H         4.56644923304862    7.12670117758794    1.45709513411862
C         2.72226890504596    8.14803942906016    1.09753476603434
H         3.11357297842954    8.72614810275845    0.27513442589526
C         1.40220068149302    8.30982883031485    1.48502770937334
H         0.76361936497370    9.01332938552120    0.97104509774882
C         1.92897332812375    7.13594455185410    8.55983346849306
C         1.23042106042573    6.32513057374405    9.45356324654983
H         0.48142362144124    5.64127742551636    9.07297193493654
C         1.49891745383836    6.38729737740992   10.80687564878837
H         0.96363760349042    5.74818561078286   11.49355091242774
C         2.45516704921837    7.27241717428174   11.28116129096855
H         2.66648777190668    7.32207736437604   12.33831769223853
C         3.13402277815572    8.09688331113691   10.39947985471158
H         3.87260493217051    8.79150117876635   10.77040045179014
C         2.87015007840339    8.03752654520717    9.04185878628842
H         3.39677520014731    8.68807560064205    8.35803528490148
C         2.71593626855500    8.00481304465336    5.93556919516323
C         2.31383118412713    9.12672485532900    5.22047539847822
H         1.26534113462530    9.42404004919105    5.25297440567473
C         3.23035832695002    9.84693576695796    4.47726753668661
H         2.91391510303168   10.71348575832260    3.91652192568355
C         4.55686985712215    9.44916842783074    4.44960547629177
H         5.27391378522460   10.00623275780389    3.86652310978585
C         4.96618992905807    8.33824327691798    5.17055297162992
H         6.00199096964073    8.03428150603708    5.15186965513344
C         4.05107764802631    7.61225921564460    5.91035966176645
H         4.36602646287916    6.74037685313551    6.46798507412471
C        -1.42043840971260    6.00902992054754    2.73678135946943
C        -1.03291641041805    5.38432120618019    1.55506647172757
H        -0.33851561934566    5.87620300091440    0.88718384495059
C        -1.53717287951570    4.13459351678608    1.24327102050842
H        -1.23795438431787    3.64912857845734    0.32631494250100
C        -2.42444611426413    3.50535400585222    2.10274376894066
H        -2.81354342937872    2.52970174825492    1.85420247955572
C        -2.81171592680533    4.12550924909136    3.27996931603729
H        -3.50434704231302    3.63404855217838    3.94723368225477
C        -2.30864099809457    5.37403691215656    3.59737160230716
H        -2.60277543790541    5.87657113275882    4.51597586535436
C        -1.59546398418796    8.80920959798134    2.09941006659781
C        -2.47988446230860    8.43271662276937    1.09677189942593
H        -2.71503394179069    7.38931032220551    0.94308935153475
C        -3.06103445045152    9.40120007656821    0.29573849296259
H        -3.74604121417506    9.10771498526638   -0.48542480189060
C        -2.76846853130304   10.74041097177493    0.49239087519565
H        -3.22377315132746   11.48991661529008   -0.13664408044721
C        -1.89639668833398   11.12095977531843    1.50143639563310
H        -1.67324164839533   12.16590922203810    1.65800447518890
C        -1.31904214377039   10.15948185514834    2.30738903314597
H        -0.63962184696134   10.44111442832099    3.10432556707317
O         1.13667688601137    6.04513569653285    4.27125634855671
P         1.44232102435129    7.03952147119231    6.81101645022626
P        -0.78131807410995    7.63829362841493    3.22796519066173
C        -1.98368853709579   10.68316258700475    6.75782237217940
H        -1.34942897452774   11.04350857167223    5.95872976433438
C        -2.85628585522182   11.53934098962581    7.40715676811539
H        -2.91571572721630   12.57721928361979    7.12273359139769
C        -3.64935464739755   11.02497204874305    8.42154168907907
H        -4.35350651307116   11.65312888255810    8.94520390729883
C        -3.52363851970451    9.68690215892909    8.74870549959233
H        -4.14384613444441    9.25146486531261    9.51571580726907
C        -2.60793292622164    8.89923683945661    8.05202653320788
C        -2.44055518483482    7.47052610672201    8.37122718198153
C        -2.59804554055659    6.99968295620080    9.67424334443725
H        -2.80137773089264    7.68569167021453   10.48072386519485
C        -2.46362238993653    5.64566702476722    9.92234968712391
H        -2.58351950983019    5.25738599654324   10.92214277040989
C        -2.17307930209717    4.79964620123987    8.86198083224103
H        -2.07121395305654    3.73606316327460    9.00691477007360
C        -2.00897905241597    5.35413212062181    7.60387654193728
H        -1.77361537336060    4.73056376054661    6.74996415743017
N        -1.85753616185822    9.39861999792480    7.06397177436195
N        -2.13486325664187    6.65283043366387    7.35749786037706

