119
CSD_code = QUXXIS | q = 0 | S = 0 | Stoichiometry = C30H74N4NiO6S2Si2 | MND = 6
Ni        4.51780842168426    7.79598568448560    0.92071193283000
S         5.05403203192440    6.71283133881500   -1.10012467751058
S         4.08241968254797    8.75663933459308    3.16387300749434
Si        3.42649703939510    6.79271961001645   -2.39955279244916
Si        4.04749262184439   10.82419355333937    3.30941599469123
O         2.52194414729086    8.10359456295359   -1.99274777645298
O         2.35476396406401    5.56418536754274   -2.26545258406073
O         3.86486602926285    6.88756529532685   -3.97229034412669
O         3.22692413550800   11.37443030759711    1.99450681042716
O         3.42352194338034   11.33157032512923    4.72945206203250
O         5.51090406650270   11.55127371825003    3.19238352590171
N         4.18669809456234    9.45419250636852   -0.01723775908787
N         6.75717187955762    8.59556935394847    1.28569594429034
N         4.86084921089313    6.12737491041654    1.84332877720094
N         2.21188821801617    7.22549857989891    0.95379836080530
C         1.49756683556040    8.77351597138294   -2.70980309585038
C         0.75786558789425    7.82896253152841   -3.65151948087768
H        -0.06087489943009    8.35061953648822   -4.14162653464973
H         0.36589283260099    6.98762011599421   -3.08734220595444
H         1.44569193577850    7.44867781558700   -4.40036446829291
C         2.14140455924463    9.90842932246467   -3.51188928986249
H         1.38718926892777   10.45813092754721   -4.06888288164519
H         2.86110309249078    9.48609104403865   -4.20739306532415
H         2.66198798960348   10.59505146401613   -2.84765222778337
C         0.52187019977069    9.34110761660212   -1.67122450954474
H        -0.22398698746026    9.96291924569632   -2.15981545223863
H         1.05328013879266    9.94286522744191   -0.93759253233277
H         0.01389706666201    8.52916342784109   -1.15541759637855
C         2.34355852342165    4.23602093428457   -2.74499339810176
C         2.18550641699559    4.23867241922489   -4.26774069740360
H         2.22408901338727    3.22405699220560   -4.65569059018953
H         2.98243230800576    4.82666840758412   -4.70973100323307
H         1.23442910650394    4.68888457896885   -4.54151068797389
C         3.62879428199952    3.51025804767026   -2.34718221967485
H         3.61384238616324    2.48623375110425   -2.71096593793570
H         3.72954746025578    3.50084947731051   -1.26484378425069
H         4.48753009836166    4.02928354816892   -2.76036343142766
C         1.13366902885920    3.54302377494135   -2.10462745252450
H         1.02117782139770    2.54117261990691   -2.51015826203991
H         0.23004343848338    4.11109141608046   -2.31120724544484
H         1.26011708095708    3.47491408455006   -1.02707645803525
C         5.07657983941066    7.03817305665090   -4.68236758634152
C         5.94965353411463    5.79427745946647   -4.50040612814339
H         6.88062590501491    5.90747509793565   -5.04907478191894
H         5.43216020818010    4.90986551629523   -4.86503709161451
H         6.17074484646094    5.66820587927659   -3.44293229545966
C         4.68685067162993    7.20556000552352   -6.15639422296727
H         5.57672822774565    7.30035485816834   -6.77241234811245
H         4.07308576875424    8.09465964752144   -6.28187439933552
H         4.11454479414582    6.34396859767685   -6.49232893642713
C         5.84651632799322    8.26717091900812   -4.19697550669068
H         6.72263420212956    8.42993514161988   -4.81866256792305
H         6.16124830832354    8.10092124694963   -3.17032162515650
H         5.21335385649419    9.15013528043260   -4.23835379549220
C         2.89115108451711   12.69258225775559    1.59251255361775
C         2.27541357690022   13.47583307550531    2.75079634748978
H         1.99661821475393   14.47480194661536    2.42364786278446
H         2.99026579460802   13.55017061621216    3.56461575984143
H         1.38790448324973   12.96418283396476    3.11557279529929
C         1.86825587618494   12.54991017313441    0.45936256293941
H         1.53944116777166   13.53025518055111    0.12471381029676
H         1.00521503215479   11.98684062392451    0.80768455823953
H         2.30944003914593   12.02267678855597   -0.38350625860061
C         4.13830424661686   13.42224681976976    1.08908021432643
H         3.89690369152449   14.45430469567443    0.84717948175730
H         4.53398480784717   12.93495188943352    0.20197282176154
H         4.90067351781592   13.40010684753111    1.86107158347662
C         2.42416803134265   10.80487124505643    5.57676176240558
C         1.26576008321845   10.21812094343715    4.77110189949325
H         0.46834266393034    9.89838517451884    5.43650490295880
H         1.62247314635880    9.36567183638750    4.19973044881411
H         0.87725301356745   10.96050836298114    4.07893917594286
C         1.93221277656096   11.97051943475528    6.44252400650829
H         1.19154240144048   11.62119054560551    7.15674997153214
H         1.48749498447285   12.74057093722688    5.81675790085798
H         2.76733168216978   12.40758546628985    6.98528271694012
C         3.04094385478678    9.71408632877144    6.45738783983617
H         2.28567346690452    9.28307262180059    7.10865682046246
H         3.83809706398014   10.13128948149453    7.06891503931784
H         3.45520366496923    8.93550938494311    5.82090780236569
C         6.51333194185772   11.78934933853754    4.15749886505357
C         6.10448216648893   12.99038001443588    5.01436371999370
H         6.84674358575815   13.17955095153344    5.78542318576961
H         5.14491629099608   12.78160166181140    5.47812201468120
H         6.00509231895649   13.87726119863791    4.39187513417547
C         7.79993484421055   12.10386967471119    3.38488736679287
H         8.59654609429570   12.36622398212231    4.07578563510090
H         7.63193276729111   12.93604393137608    2.70527803259561
H         8.10837377010185   11.24109827601885    2.80015720114565
C         6.71867440100315   10.56234550270212    5.04493405782869
H         7.53510262141197   10.73170228113132    5.74211282549135
H         6.94345287562393    9.68986865807976    4.43603093367044
H         5.80765901349657   10.35828128774313    5.59830104008429
C         5.16749567010533   10.17254507695674   -0.82836919682291
H         4.69269344403143   11.05880761426242   -1.28011505517970
H         5.49026805582080    9.51377825934343   -1.63680697823939
C         6.38869244688298   10.62826020908352   -0.03219085671192
H         6.06062694420547   11.08417096676682    0.90369512428502
H         6.92469960591529   11.38029041048793   -0.61500274920335
C         7.34160842615947    9.47838384840400    0.28375897601321
H         7.52204031181142    8.88683385739682   -0.61770791426439
H         8.30560618940843    9.89969872111373    0.61939894038984
C         4.06780221029298    4.90816521541912    1.70370945263393
H         4.51324557749222    4.10660089472190    2.31215732139331
H         4.10062401628576    4.60700014714204    0.65399941241071
C         2.61817570111714    5.11298552141858    2.13860911187626
H         2.60599307458662    5.69779602244208    3.06042324142906
H         2.16566997282455    4.13956008706915    2.33682222943226
C         1.78948881091985    5.83879881685279    1.07939285243844
H         1.93847607015156    5.36492369249861    0.10761238690200
H         0.72118547360529    5.75430453464416    1.34390618581567
H         3.43775921934361    9.13742926956673   -0.64497604005181
H         3.79152531898743   10.09902048273573    0.67777306807996
H         6.57274392545382    9.12783216812161    2.13608865536137
H         7.41426073827047    7.85307718205827    1.50886262208696
H         5.81870119146032    5.92955179417043    1.54996070426397
H         4.85918074130642    6.42829346916084    2.82056238100422
H         1.90783083865120    7.76073296104856    1.76520736289929
H         1.80206240446333    7.62502505249575    0.11482968132422

