59
CSD_code = QUYDIZ | q = 0 | S = 0 | Stoichiometry = C24H16N6O12Zn | MND = 4
C        12.46925552098808   11.54830452002792    1.91849557830547
C        13.60364292839981   12.47974601541306    1.59873582416716
C        13.40289535745856   13.54449521262961    0.72907625035948
H        12.43243042584466   13.69486103726536    0.27876346433219
C        14.45557574398041   14.40627936717152    0.45222472187740
C        15.70669406588804   14.22972266850295    1.02507552016342
H        16.51923287208715   14.90776172151790    0.80401910167916
C        15.88578266347849   13.15935823731392    1.88890638731481
C        14.84842740309699   12.28462948657180    2.18283335489958
H        15.00208639795830   11.45901288812241    2.86205467255603
C         9.75713164586361    8.87281117552555    0.12573313758889
H         8.88172867415508    9.45717885254298    0.36569510803605
C         9.86282414363288    8.17323259004342   -1.06487470211066
H         9.05891354787719    8.20331123958116   -1.78295081765742
C        11.01590438327366    7.44568921294027   -1.31198245822864
H        11.13447016647489    6.89186713970490   -2.23131246390574
C        12.01633564653924    7.44660726431763   -0.35189869909828
H        12.93149004611563    6.89562346101122   -0.50063680192019
C        11.82382428364992    8.17454874206586    0.80938335293538
H        12.57921247487859    8.21180458207835    1.58113772744169
N        10.71730528426678    8.87180552616060    1.04358397844736
N        14.24831625469030   15.51846593329850   -0.46110500092166
N        17.18902366542038   12.94896275951090    2.49580569680812
O        11.37162113716469   11.72048335851131    1.35735301301558
O        12.66713443269517   10.61923075657046    2.73109996090716
O        13.15332357814660   15.62937327020366   -0.95933205236123
O        15.18784159819387   16.25130734467329   -0.66263305112537
O        18.05593203810407   13.75119818476336    2.24161683332324
O        17.31757467369780   11.98104363609915    3.20883375050472
Zn       10.63633841690983   10.24119253121087    2.60618869390320
C         8.80167580458309   11.54390563818006    3.29733417967761
C         7.66728698588778   12.47531459086671    3.61709817984030
C         7.86837503565186   13.54049157835491    4.48614076673641
H         8.83860389668923   13.69008785236411    4.93721531393593
C         6.81643268556128   14.40374045684845    4.76117440922773
C         5.56571853395653   14.22818788587027    4.18715045527657
H         4.75383953293757   14.90758716609967    4.40646722931452
C         5.38608948478321   13.15695719439113    3.32449264626404
C         6.42277896170422   12.28088522853648    3.03220623267169
H         6.26880755015529   11.45486216253321    2.35354744255365
C        11.51251678228956    8.87291279974159    5.08715108269944
H        12.38946119970864    9.45481574329295    4.84691073664421
C        11.40174270232970    8.18035141870016    6.28133259988485
H        12.20309213440241    8.21340240157666    7.00214215358540
C        10.24652775959795    7.45625463451325    6.52891478326990
H        10.12384440385879    6.90854640632766    7.45135663661675
C         9.24944165428046    7.45297782500537    5.56542986307162
H         8.33302745271908    6.90408122711404    5.71395219422137
C         9.44694979723011    8.17409730982569    4.40070782777799
H         8.69430215491070    8.20769155949135    3.62611164240906
N        10.55513360805306    8.86861766966883    4.16631486723447
N         7.02414375288256   15.51655262149435    5.67368792597466
N         4.08310352103722   12.94733503850822    2.71678632467998
O         9.89847347987693   11.71440612958996    3.86066193567618
O         8.60493922162012   10.61739714529789    2.48158906230469
O         8.11964037691300   15.62827900611097    6.17059815570506
O         6.08519570549147   16.25046492898034    5.87390591290304
O         3.21654739971552   13.75018108396822    2.97028355032150
O         3.95503895027423   11.98070658135928    2.00194580827480

