34
CSD_code = QUYDUL | q = 0 | S = 0 | Stoichiometry = C6H18Cl3IrO3S3 | MND = 6
Ir        0.27967399512965    4.54044299468272    7.63602275638644
S         1.97426811518648    4.09414112114886    9.16869719160424
O         1.55654773942506    4.29267562187013   10.54145920603788
C         3.49964360873782    5.05206224412160    8.93403021439214
H         4.17355363507208    4.81145927396054    9.74755181817510
H         3.23669671065199    6.10391390536856    8.95377233478541
H         3.91156801778349    4.78059475058923    7.96996696358586
C         2.68752157248692    2.42537983821128    9.07012876356313
H         3.40938929586442    2.32300322751501    9.87145343051313
H         3.14563363453319    2.32169087225454    8.09428520763852
H         1.88020354817616    1.71129543107642    9.19065516024951
S         1.53541110846543    4.05913933478747    5.84187587852123
O         2.88749760203733    3.65118421060365    6.19468992298892
C         0.84342827694217    2.77910954882386    4.76470029865920
H         1.53109383577435    2.61488698910321    3.94347365529155
H        -0.12451919935974    3.12852817302389    4.42444558629840
H         0.72083086639163    1.87799932858401    5.35637465938446
C         1.66870080585861    5.41018949802966    4.64596370331081
H         0.67145077692037    5.62256229075147    4.27881828392514
H         2.33882806299378    5.09894937623142    3.85319869465295
H         2.05890013375119    6.27686276278206    5.16948742138997
O        -0.98675436531963    5.01271839308655    9.25360116074786
S        -2.35235763916839    5.61118111455389    8.98956522068223
C        -2.79832029232816    6.07734005943920   10.70099234880720
H        -2.56574617823472    5.24890288767918   11.35999554863857
H        -3.85014500015508    6.33491657724336   10.74448025905133
H        -2.19304292086764    6.93599055509383   10.97146792704515
C        -3.44414345439109    4.15394085809638    8.87401473224281
H        -3.24560264679024    3.68029702021540    7.91705263357366
H        -4.47775481244203    4.47596640390072    8.91947580853297
H        -3.20516250118244    3.46630722717287    9.67752920664369
Cl       -1.44768385728397    5.00604881407447    6.16838123403293
Cl        1.04294770003905    6.72364553412357    7.56996197739368
Cl       -0.31755617469430    2.30697376179095    7.77953079125569

