101
CSD_code = QUYPIL | q = 0 | S = 0 | Stoichiometry = C42H52N2O4Zn | MND = 6
Zn       -4.92556841696132    2.23213358049766   -3.29927107553895
O        -6.05950340045000    2.55005718978475   -4.83415979314735
N        -3.74808537507438    0.55622441344245   -3.88773511165808
C        -5.82023113044189    3.67757980646706   -5.38999912099760
O        -3.83131483254379    3.80352868937075   -4.16228205672941
N        -5.82336777418003    0.66992769891338   -2.18195167382982
C        -4.55301215118357    4.34832444619858   -5.06275624200493
O        -3.56689890134667    2.44777857769542   -1.84797375869704
C        -4.15033581831372    5.50157470767504   -5.80812071729889
O        -5.77015793567314    3.79010935370927   -2.27782399064053
C        -5.04185824462645    6.00194783781885   -6.72145872965667
H        -4.80520637272301    6.89013902270905   -7.28427280136095
C        -6.28743956666429    5.40581667064985   -6.97447575119064
H        -6.92315389617829    5.89159195283916   -7.69706616510142
C        -6.69310599647367    4.24830345691433   -6.36206341489311
C        -2.78911263732686    6.13787901746026   -5.56391081063131
C        -1.69574099216187    5.08661003215849   -5.80031219854414
H        -1.77139693375513    4.67847517326020   -6.80709038620579
H        -1.79739515913446    4.28314431295934   -5.07719525504552
H        -0.71106779271295    5.53527181807787   -5.68086497233350
C        -2.51686191581464    7.32449758040230   -6.49391453769628
H        -2.54662575624113    7.02080055087885   -7.53800598721233
H        -1.52494328615812    7.72134056382886   -6.28549537873246
H        -3.23608784523512    8.12414531561433   -6.33331197855080
C        -2.70532529294819    6.62790347289590   -4.11467227424410
H        -2.86485233655537    5.79959040064597   -3.43386044428014
H        -3.46078396805561    7.38697481879703   -3.92291855358745
H        -1.72550446957856    7.05910946458148   -3.91675530265713
C        -8.03056950852804    3.58187300454603   -6.64702738202439
C        -8.86828128892259    4.35483717129310   -7.66974795944006
H        -9.08777835337299    5.36036005326073   -7.31821655287877
H        -9.81386316012932    3.83773485412868   -7.82177709364381
H        -8.36038833520213    4.41517471186195   -8.62974405627687
C        -8.82749230865817    3.49389714004335   -5.33911514888896
H        -9.02377395659611    4.49144157007377   -4.95076160320742
H        -8.26189371954738    2.93743771189377   -4.59942685463741
H        -9.77833727954305    2.99201349996826   -5.50895506239491
C        -7.77824936820758    2.17143505223087   -7.19753365189587
H        -7.20474766627410    2.22514995138792   -8.12131617756780
H        -8.72408717144102    1.67446151149571   -7.40493890332979
H        -7.22368583691940    1.58259956446930   -6.47376304867819
C        -3.53113794429862    3.69302697357525   -1.60918120450224
C        -4.78474023219611    4.43953366253960   -1.81569441129158
C        -4.86585091647447    5.81328858370433   -1.41306556414105
C        -3.73591714117910    6.37806612608334   -0.88985846823989
H        -3.73704523410835    7.41077513732215   -0.57987619981207
C        -2.52166295133658    5.67478245440608   -0.73742821458628
H        -1.69013226986080    6.22588415124948   -0.32792190828582
C        -2.37833806495388    4.36001140392945   -1.08337065446552
C        -6.17633683742153    6.56615302374102   -1.58202668821084
C        -6.61272140161147    6.51962924531449   -3.05243767716211
H        -5.86583753253330    6.99013751132469   -3.68829983218186
H        -7.55717349971702    7.04572307753878   -3.17893120945591
H        -6.73997437780641    5.49381855413878   -3.38288942262210
C        -7.24240360086297    5.89102314734285   -0.70733778203730
H        -6.94762895247486    5.92305788233791    0.34019381299063
H        -7.36589068095144    4.85409959556376   -1.00285635444050
H        -8.19704208399995    6.40179872770656   -0.81689822827970
C        -6.06655541486785    8.03473591834651   -1.16111252574073
H        -5.80932033782057    8.12566295728189   -0.10812064190767
H        -7.02618499431324    8.52417236179608   -1.31572809689772
H        -5.32200507329191    8.55785089902933   -1.75686250253923
C        -1.07768720091291    3.58617122461164   -0.94096945392812
C        -0.66817551738487    3.05492915433789   -2.32135140732889
H        -0.47537314175870    3.88479063704487   -2.99791659556489
H        -1.46168561367941    2.44358001604008   -2.73984820262774
H         0.23430313935391    2.45082509856529   -2.24199504160733
C        -1.29168070838736    2.41072267791196    0.02343580291371
H        -1.58734488260627    2.77744033846141    1.00480660795538
H        -0.37095255839489    1.83936399686931    0.12848655760275
H        -2.07057184478405    1.75354816477261   -0.35181027530949
C         0.06397581514819    4.45234638984785   -0.40105147086165
H         0.26062701487344    5.29500064684028   -1.05980911860590
H         0.97077558725426    3.85359984882485   -0.33885667192071
H        -0.16265252650015    4.82415610223642    0.59564246055145
C        -2.77176003547941    0.50027588501765   -4.76974280954676
C        -1.64693830567494   -0.32206086630528   -4.56496383085854
H        -0.85407892088426   -0.32300274051631   -5.29725300155329
C        -1.56900550636980   -1.10225693182856   -3.44235312470325
H        -0.71180893116173   -1.73435914025971   -3.25870838033251
C        -2.63143271113257   -1.08882533524986   -2.52071303984775
C        -2.65932629616297   -1.89677143795248   -1.35057863622819
H        -1.81460936054129   -2.54090950899433   -1.15421732582283
C        -3.72024306632773   -1.86341871826643   -0.50768638852841
H        -3.74542493636904   -2.48185746351420    0.37776876990697
C        -4.82980998897578   -1.01134272110152   -0.76403976578215
C        -5.96162234622100   -0.94708463236471    0.06802965437651
H        -6.00685914794419   -1.56283226011831    0.95524165292014
C        -6.99251163640836   -0.11017474058683   -0.26729980158522
H        -7.87947484897427   -0.05377733679948    0.34516246255916
C        -6.89587229843352    0.69870980578807   -1.41632662609431
C        -4.82075599955681   -0.17222151500523   -1.89755312041533
C        -3.70773993074752   -0.22152714917559   -2.79733585414952
C        -2.89126275063435    1.33925714089016   -5.99168046646314
H        -3.93489056505458    1.42456785341643   -6.28343635493828
H        -2.30215780862583    0.93374501426556   -6.81034711722295
H        -2.53574523228052    2.34408898005015   -5.76767528461512
C        -8.00811147166193    1.59777071649939   -1.81985971366258
H        -7.60558948103620    2.58044784793528   -2.05155600755644
H        -8.76321363512681    1.67496993652233   -1.04265662949831
H        -8.46602665634822    1.21678790429464   -2.73153670072174

