48
CSD_code = QUYWUE | q = 0 | S = 0 | Stoichiometry = C23H15BrN5O3Re | MND = 6
Re       11.33511713657213    0.18602274297518    7.49200015917576
Br       10.26935201027308    0.69180533832170    5.21611109096992
O        12.49905412508102   -0.16017539316085   10.33190518257874
O         9.25858424589678   -2.08966395482011    7.74303062203812
O        13.31860673586081   -1.73918640996344    6.10934860259355
N        10.12492978454866    1.84399986114569    8.19194862689229
N         8.97360018827408    2.08925303237790    8.81231555927574
N         9.82240220609744    4.05030872324015    8.34266491764606
N        12.52175419078906    2.00075162302991    7.02802390947728
N         6.87177448839649    1.67056917326064    9.73495953850392
H         6.21204627741823    1.03436908268221   10.15571595062770
C        12.08448082040796   -0.03318804302094    9.26860004475130
C        10.05506535367313   -1.26322196225043    7.70390398323861
C        12.58228865173157   -1.05804921899752    6.66166580260820
C         8.80360238003002    3.42810328353722    8.91017293069797
C        10.61225540667456    3.05191814360903    7.91151936640880
C        11.88111518039659    3.16589544550040    7.23092795674277
C        12.38557823916955    4.39038881803765    6.80662543627866
H        11.80989564526669    5.28054774906428    7.00040659050823
C        13.59497825417160    4.41146450488471    6.13999534517416
H        14.01241766351801    5.34110802707697    5.78520601159301
C        14.25743576126388    3.20922835522995    5.93041891425177
H        15.20173874719220    3.17587810210747    5.41150669088654
C        13.68760361777833    2.03553753515850    6.39061328915244
H        14.18222898223861    1.08503857797238    6.23719431305284
C         7.64425778385773    3.94918696514324    9.57498035096945
C         6.69943314619035    3.00350871229103   10.01610801808186
C         5.55385087911695    3.46169151574928   10.66447246300155
H         4.81635839345532    2.74824305084939   11.00171805216506
C         5.36443211295237    4.81421746243900   10.86864066944613
H         4.47220138029954    5.15163522375155   11.37426361021806
C         6.30473701152667    5.74157565425692   10.43680052994609
H         6.14287720607515    6.79442955294765   10.60475884174239
C         7.44367032928305    5.30860072918723    9.78945069967520
H         8.19286138372293    5.99963175785392    9.43711093816985
C         8.15670655930087    1.07686971240894    9.42754610597768
H         8.00133039957883    0.26154252834101    8.70168834906545
C         8.87570716570425    0.52852128146059   10.65224991570525
C         8.96861462185258   -0.84080291465487   10.85842497533372
H         8.51964437673533   -1.52325949001500   10.15313000362841
C         9.63929196791766   -1.33141814018467   11.96467885655304
H         9.71610407801797   -2.39743097770367   12.11262425074613
C        10.21647966919403   -0.45882473391035   12.87079401009886
H        10.74911565439152   -0.84252443299116   13.72739090925317
C        10.11184921406099    0.90801617406257   12.67703542588433
H        10.55729405177826    1.59281039129260   13.38274609278466
C         9.44225041324413    1.40246325895992   11.57262968666356
H         9.36542610878967    2.47171358158574   11.42677640974046

