36
CSD_code = QUYWOY | q = 0 | S = 0 | Stoichiometry = C16H10BrN4O4Re | MND = 6
Re       -0.56392571634572    1.65808942409015    4.88522445770487
Br        0.48335507530620    1.28605010828009    2.57425143736649
O        -1.77207508137555    2.38738836383522    7.63244772903364
O        -2.48514144348225   -0.70692796048173    4.35636634860849
O         1.66494645460244   -0.14252309349521    6.04472966514995
O        -3.09701466656301    6.93920053108759    1.36695244372441
H        -2.40061553193309    6.51222769133530    1.91039101387553
N        -1.76539778915734    3.08961581074639    3.84311781882754
N        -2.93769640720954    3.15728237626278    3.20100334425127
H        -3.56898637218314    2.37066277665448    3.18572646414010
N        -1.94490443819357    5.06748592536059    2.84728461461800
N         0.65563219297355    3.50476247890781    4.85720060362455
C        -1.32527622323884    2.10948870129595    6.61328371895408
C         0.80302903032693    0.50510475984421    5.66318213274288
C        -1.76221901017058    0.14546367373582    4.60970952523062
C        -3.04196287920520    4.36414035962645    2.58960095252815
C        -1.18339247354029    4.25880368016114    3.60677079917094
C         0.13824774320764    4.51397821342118    4.13188790820943
C         0.82999263050727    5.69311938192709    3.87776396677415
H         0.35889121582955    6.45867696218591    3.28299511505170
C         2.10645681226928    5.83336104760457    4.38772545131755
H         2.67622431423377    6.73079758384080    4.20366146489474
C         2.64071006902755    4.79228243447134    5.13488899599939
H         3.63432938736581    4.85530465617315    5.54791298166108
C         1.88277052611353    3.65351111284830    5.34423547658961
H         2.27618754919854    2.82587696383839    5.92017453558649
C        -4.15748327115070    4.81422157069674    1.79779020045056
C        -4.12552732565836    6.09962894324709    1.21701775355799
C        -5.21397620871950    6.52284199876784    0.45154090140225
H        -5.16933558932674    7.50829300175062    0.01645521735719
C        -6.30324963621700    5.70243548159388    0.26177401449685
H        -7.13473158444061    6.04631953574844   -0.33390051018556
C        -6.33729989249630    4.43434915853209    0.83176176304718
H        -7.19131705279012    3.79352174382681    0.68000323140300
C        -5.27571897091250    3.99756153823921    1.59020110958942
H        -5.31042543665098    3.01110306403804    2.02806735324553

