34
CSD_code = QUZJOM | q = 0 | S = 0 | Stoichiometry = C15H11BrN3O3Re | MND = 6
C         7.45706249195943    6.99964940966621    6.85212846003521
H         6.60407743906909    6.35910238319364    7.03266182975716
C         8.01297753532680    7.10192262371572    5.59555902505322
H         7.59723650549439    6.54161936420095    4.77520858118787
C         9.10347276602881    7.94722295381653    5.40995290909506
H         9.55429628003364    8.06054004958051    4.43649211441993
C         9.59704780618388    8.64081138942366    6.49100334492787
H        10.43740465838780    9.31090212520786    6.39934760152450
C         8.97388862489287    8.47652057446504    7.73249462911401
C         9.28111865791033    9.77292765745542   10.98732020433748
H        10.01535803035354   10.54920340917227   10.75485785752301
C         8.82066002224862    9.70598783960456   12.36054017047624
C         8.67110223408775   10.89129906640843   13.08338035596428
H         8.88219295543814   11.83701522307451   12.60565782177180
C         8.21534487568641   10.85796999853548   14.38594154934580
H         8.08080209676977   11.78062390116953   14.92999636919369
C         7.93224114904270    9.64468640243452   14.99410069592504
H         7.57702356217087    9.62237777707453   16.01304374645948
C         8.11275395203024    8.46194076794976   14.29620461998637
H         7.90819099880424    7.51481893298973   14.77156750849261
C         8.54981249590759    8.48654618045801   12.98531642949708
H         8.71457846773323    7.56142761151229   12.45225788582588
C         5.24570545595911    7.06981410401323    9.28300553612221
C         7.63159142206263    6.21903391547661   10.49193404368598
C         6.06136853970524    8.43356828200811   11.50687213104027
N         7.91602795657006    7.67350424603567    7.90900148547463
N         9.44799794472263    9.13477801544940    8.83250207035919
H        10.16617158017549    9.84377915876682    8.70906056057160
N         8.86249068502024    9.00960975442770   10.04604002138397
O         4.26006934149814    6.63584697626725    8.89227479392108
O         8.05742430904904    5.22286328517875   10.87470610945089
O         5.49540647751133    8.84985835062185   12.41037667546608
Br        6.19448877293187   10.17339936604769    8.89477744546167
Re        6.91751390923262    7.89532890459993    9.83451541714922

