48
CSD_code = QUZKUT | q = 0 | S = 0 | Stoichiometry = C21H16N5O5Re | MND = 6
C         4.58611591510728    1.35131333453339    9.53755898115501
C         5.25550321732186    2.34468904031690   10.27327749152869
H         4.68657623701757    2.95896774708785   10.95101459979757
C         6.60952871454339    2.53382043976688   10.12633204702833
H         7.13128840494771    3.29509862629004   10.68618411678313
C         7.33115357468538    1.73577648520088    9.24124206265690
C         6.68930387229344    0.74532613667615    8.49753506544228
H         7.27010674444044    0.14289992630224    7.81592134356563
C         5.33799428797122    0.55853698957425    8.64811036954446
H         4.83648395400894   -0.20636511646642    8.07335868166271
C         3.18013095338262    1.08027198762178    9.63507582150516
H         2.81645324561248    0.27414683307073    9.00798148462867
C         1.60905848606918    3.28865900719665   11.78384330151148
C         1.90899385173620    4.40966533697580   12.58948006591497
H         2.93780336872166    4.72371880601416   12.65349834210592
C         0.90012927629006    5.05935073007858   13.24471667213544
H         1.10866114806452    5.92007847022077   13.86222724801575
C        -0.41212026188499    4.59763659676472   13.09761420411445
H        -1.23548633958638    5.09198644622236   13.58588141286142
C        -0.63828939890487    3.49385541760735   12.30927069465333
H        -1.64370244963561    3.11374630303840   12.17196299811551
C         0.45625805961261   -0.69692313631164    9.62490236906150
C        -1.61319578491743    0.55381862313820   11.04097016818797
C        -0.29693177225925    1.93215928724577    8.92290685259861
C         0.48218232210592    0.44177592838428   13.63929151374761
H        -0.43667728380887    1.01445529071989   13.61935739536254
C         1.02406860721863    0.05496399911479   14.84876152877944
H         0.52910865447004    0.33291824947598   15.76640185856339
C         2.20070298013725   -0.68712494352057   14.87424989189248
C         2.76310284244595   -1.00499840411087   13.64137634340140
H         3.67318914464203   -1.58165075518257   13.58508451409199
C         2.15512844513439   -0.57848848154488   12.47808959843088
H         2.59127022976647   -0.82768884031781   11.51896318321184
C         2.81333833539041   -1.14576874769757   16.15294524955761
H         2.52261587062739   -0.50198008849568   16.97912311784899
H         3.89778594887994   -1.16918074286539   16.07687580239273
H         2.47230508178419   -2.15738725400678   16.37578172736796
O         0.64596907134023   -1.69642870570310    9.09339617500706
O        -2.68974356890331    0.33427210514092   11.36906863006323
O        -0.56393878976305    2.52016169845875    7.97788793096978
O         9.26623882347407    2.79826761792591    9.76745362844617
O         9.33496165304374    1.21670879469979    8.31038535248563
N         2.26111364197910    1.66984268433720   10.35739326384582
N         2.60623127330433    2.69357910232790   11.12532423899218
N         0.32977637214707    2.83176120049082   11.67249380251885
N         1.03339897671644    0.14349773478042   12.46215939430342
N         8.73822953365026    1.93092666260541    9.09525475102877
Re        0.22652452957788    1.00233157681883   10.55461471311571

