36
CSD_code = QUZKAZ | q = 0 | S = 0 | Stoichiometry = C15H10BrN4O5Re | MND = 6
C         2.75441900778090   11.39105970342654   11.82045589600649
H         3.30300829063689   12.27884754229657   12.09456356348204
C         2.20322254984188    7.50076123167595    7.37433982167081
O         1.70101562278482    8.00726152337531    6.47512616908268
C         1.40589616327048    9.05072105655141   11.12483783228576
C         2.63269002445327    8.97099360393788   11.77637031153638
H         3.07550625516241    8.02124591094116   12.04347701804858
C         3.28653211305907   10.14521367093363   12.12036876277751
C         1.52650187842606   11.46201356262311   11.18696559859360
H         1.09419624668007   12.42267524350553   10.95493667499995
C         0.84959542528106   10.30267281628400   10.85534444869245
H        -0.10988762995190   10.36114409443248   10.36285707885288
C         0.65345218165831    7.84695628247397   10.77899781328668
H        -0.36488243876093    7.78519361810973   11.17249267440858
C         0.72513335823566    4.71342758832149    9.17841119169174
C        -0.06789742604764    3.56372636635097    9.14036384728299
H        -1.00469937105089    3.53937120219535    9.67452702676765
C         0.38504810172288    2.47762646621383    8.42462895330069
H        -0.19798613768616    1.57120271033519    8.38162481009540
C         1.60756018653508    2.56974384906273    7.76691026657444
H         1.99975104067255    1.74067849836041    7.20252416185769
C         2.32135594620616    3.74611290745224    7.85076240070665
H         3.27613235612618    3.85361065582673    7.35420016363036
C         3.98338154954233    8.28901101089079    9.34992687474013
C         4.61125980436511    6.09165322128592    7.93794052368161
N         1.10927231308632    6.88896786187920   10.06431900119712
N         0.31373112388433    5.81378402521700    9.88441971487769
H        -0.56554327347309    5.76755042591643   10.39279311202897
N         1.89497086507842    4.80644668661954    8.53824975904462
N         4.55777207644756   10.07166340997392   12.81424904611656
O         4.59458897939976    9.23888928859808    9.54837751587642
O         5.54639677529381    5.69382216471685    7.41208427721823
O         4.95204767199824    8.97994454812469   13.14676120370446
O         5.13209816848807   11.11677715230156   13.02706093965625
Br        3.77042417244619    5.39716047208474   10.99428088061920
Re        3.02193602839634    6.64976962769933    8.91365066560733

