33
CSD_code = QUZTUB | q = 0 | S = 0 | Stoichiometry = C14H12Cl2N4Pd | MND = 4
C         4.22503421466167    0.64026271415934    9.35477628851181
H         4.30997726907787    0.33453453181205    8.31819742921235
C         3.19143187876670    0.20393287814216   10.16594435095046
H         2.45054106581813   -0.47342704447274    9.77394764092359
C         3.12762724599484    0.65260344258803   11.47639836658033
H         2.33560777696718    0.33278895341433   12.13521613195855
C         4.10587482065854    1.52765796161957   11.92781526199881
H         4.08822723252776    1.90201026325350   12.93967106402298
C         5.10267831270445    1.92707034034089   11.05389964007110
C         6.20782422727387    2.87777211542172   11.46650801663002
H         6.21497757313254    3.73680168041998   10.76677264902706
H         6.07194777713799    3.23154921856280   12.48930221913312
C         8.35041304830754    1.78416101473448   12.29329704275241
H         8.21437122025857    1.98105582116076   13.33495271144969
C         9.34831522166214    1.13034118537522   11.58618861081091
C        10.56251153320498    0.47935465067739   12.04658345085982
C        11.45163028063362   -0.03950979412847   11.10608690432776
H        11.21193093482120    0.05807200069598   10.05906227517346
C        12.61439762264736   -0.65922540663986   11.52043707468316
H        13.30022865814347   -1.05815059083980   10.78827919734150
C        12.90292711908345   -0.76786458672525   12.87168909405762
H        13.81279831160543   -1.25145000384236   13.19461017985681
C        12.02269951724547   -0.25417776015028   13.81025150466366
H        12.24641551283704   -0.33789647195635   14.86368018044294
C        10.85685888549174    0.36710291502701   13.40402947563504
H        10.17510975612880    0.76361740202333   14.14185424355017
N         5.15988116692073    1.48393913094701    9.79042200035113
N         7.47725907076853    2.20612156045305   11.35299302938626
N         7.91852622282292    1.82121741150423   10.15319256942044
N         9.01531205316215    1.18610893710744   10.27419166885167
Cl        5.37208253694206    2.26067308668427    6.84071487747138
Cl        8.44469167855789    2.71622164648098    7.33073023725434
Pd        6.74069025403369    2.05603079614823    8.56170461264014

