107
CSD_code = QUZTEM | q = 1 | S = 0 | Stoichiometry = C45H56AuNO3P(1+) | MND = 2
C        12.21877110167341    3.80354759857678    6.16811780106853
C        12.74327642248740    2.59245099420270    6.70432186292240
C        12.49631888342457    1.36231898980701    6.06420726080285
H        11.96482248851687    1.37175976997873    5.12269312999248
C        12.96885621263532    0.17490758030706    6.56357016157555
H        12.79366643529707   -0.73692536698238    6.01497493962598
C        13.66161871712400    0.15271118463182    7.78287814990461
C        13.86772731212685    1.36366094751505    8.46496470509515
H        14.36990801534029    1.32800437358479    9.41837807774753
C        13.44332925208140    2.55024360989637    7.93218134385038
H        13.58063355109833    3.46411282575920    8.49031595156967
C        13.96110247364576   -2.20867774817916    7.77476329928595
H        14.43534568819065   -2.92177801994849    8.44613811923691
H        14.44506717595690   -2.25634708870065    6.79539059894902
H        12.90046256470658   -2.45471570910703    7.67478631000569
C        12.94005805849315    5.00935614032056    6.39330596039779
C        12.28812952899053    6.25863378247162    6.35522593876616
H        11.21541580900814    6.27451491546323    6.21788137736322
C        12.95927918039956    7.43879947586477    6.54951168693696
H        12.40988925960444    8.36708415469258    6.55056500655597
C        14.35045735923309    7.43391517866056    6.73172945542759
C        15.02781563737722    6.20270263156890    6.71760967299178
H        16.10082299454469    6.21528094583940    6.82426221482821
C        14.34423135532966    5.02681669723952    6.57184179557716
H        14.89088873529695    4.09704339940720    6.52902750729308
C        14.51857350689611    9.80195658778127    6.90599286410505
H        15.33873759666106   10.50053037456435    7.05877224435199
H        13.79753719843336    9.90573575095001    7.72145237928641
H        14.03097441599109   10.01816539808624    5.95150301839396
C         7.02027246408041    4.06673853100691    4.62818681136471
C         5.83502597217099    4.34047505042454    3.94260862098491
H         5.86623810355727    4.53702439309948    2.88343720381443
C         4.61806657048307    4.37100241266864    4.59317550767263
H         3.71581088479489    4.58268549041904    4.04035555312124
C         4.56460761833564    4.12872117761691    5.95505146596934
H         3.62018405785302    4.14646476611222    6.47643552070994
C         5.72966531874327    3.86594022531473    6.64835948401415
H         5.67433873163078    3.68237994227966    7.71124706698060
C         6.96434981198267    3.83166013797760    6.00615504060680
C         8.39127061700241    4.54375972758489    7.80156118395368
H         7.56237639959793    4.56543381841831    8.52309165648941
H         8.47605601448942    5.53002486240671    7.33902651534863
C         9.67446422181056    4.20977860698343    8.56300670558659
H        10.53774616876470    4.29499500118864    7.88325379398453
H         9.80449063940910    4.89575443718257    9.40171937340832
C         8.11784587319348    2.21847521217449    7.34966547743366
H         7.27702761193322    2.12218072293461    8.05134981511142
H         7.99825964118422    1.47987328571572    6.55519728935007
C         9.41393571161411    1.95254711743027    8.11184715743924
H         9.36160445389459    0.99028676704719    8.62336356751670
H        10.25678717494033    1.94596199888196    7.40626357470144
C         8.48176611363300    2.53262630061629    2.63248977299637
C         9.73959129587235    2.49059455849026    1.76320050351266
H        10.62918925997406    2.59847226538897    2.39427547364352
H         9.72776100047803    3.31618950139330    1.04841487573235
C         9.79338603838793    1.17080451655281    0.99364476872330
H        10.69929436478080    1.15219056691109    0.37867627905207
C         9.81757126795605    0.00035254957769    1.97428800353633
H         9.87151416407739   -0.94130806019202    1.42565879422928
H        10.70251509706164    0.06704447441460    2.61241483087323
C         8.55146896180675    0.03178683587058    2.82850756627948
H         8.56487191578283   -0.80334944609271    3.53745586923574
C         7.32068672249593   -0.07684456633599    1.93081009189422
H         7.34858316110715   -1.01424144984308    1.37307480860743
H         6.41345410085793   -0.07664641648345    2.53923559793664
C         7.30380744339768    1.10401156824779    0.96263366858027
H         6.41806270684121    1.03797391396128    0.32256499529008
C         7.23913810987983    2.41767422568991    1.75155327176898
H         6.33905967219870    2.40864677033599    2.36953579363437
H         7.17518887515350    3.25284379344323    1.05317813247465
C         8.49385187152837    1.34609806884769    3.60497658430209
H         7.58938984595654    1.37247445082308    4.22065138149256
H         9.35924953531384    1.42279200677778    4.27370937666057
C         8.56134042895627    1.06974156832361    0.09625992886425
H         8.54944505868570    1.89714271057170   -0.61676765774144
H         8.59148983643078    0.14017631572517   -0.47426445293605
C         8.75220478981411    5.68565224958377    2.85891254172348
C        10.23963967343768    5.90262757126948    2.54505531441600
H        10.83607396619954    5.76157821297079    3.45275603568249
H        10.58409253559010    5.17497245581129    1.80834179648601
C        10.46987276570025    7.31500103832857    2.00754268518474
H        11.53636627616743    7.44135327819894    1.79244701324787
C        10.03496161552778    8.33481283370684    3.05726055758417
H        10.62705279307708    8.20651167365186    3.96730772796023
H        10.20379351218878    9.34705225071074    2.68601046492755
C         8.55237546766817    8.13469646817268    3.36348295062723
H         8.22988637986485    8.86225682436707    4.11620423736237
C         7.73174495675387    8.32085928856635    2.08797990176429
H         7.87023698339300    9.33173804906307    1.70130085209689
H         6.66964419982394    8.19012599129019    2.30705373307083
C         8.18165105409559    7.30208800596835    1.04206184557250
H         7.59177880469614    7.43323052635868    0.12886463248814
C         7.95724125714040    5.87943830111972    1.56849647879545
H         6.88943304759592    5.74103034250194    1.73649890758790
H         8.28587617674732    5.16444606412192    0.81121890769398
C         8.31820411257049    6.72362720621329    3.90067731007990
H         7.25903409634357    6.60034953995929    4.14025864660391
H         8.88920134771533    6.56814126992385    4.82451923898727
C         9.66057904032504    7.51148566266591    0.72828020400526
H         9.81901729710665    8.51747815623041    0.33664387129612
H         9.98815960399140    6.80160377495783   -0.03447405865167
Au       10.42295525738200    3.82367132023049    5.14880704655556
N         8.16438306557710    3.55271139064523    6.74862895979160
O         9.63181157767136    2.91759475603276    9.11207217022132
O        14.14115018786692   -0.94344652789334    8.37655122645611
O        15.10957714856015    8.51852693272856    6.90223456462093
P         8.62188316859326    4.02856501000023    3.76140475709473

