33
CSD_code = RABCUT | q = 0 | S = 0 | Stoichiometry = C14H14AuClNPS | MND = 2
Au        0.54557320128106    5.72245904001473   10.33037513761866
P         1.13194058073509    3.60039082635268   10.74775897200542
S        -0.29399117662103    2.82635190818981   13.23144361845356
Cl       -0.01533121793938    7.84570826677124    9.80755179327178
N        -1.12546697919427    2.11377576510396   10.81730569465588
H        -0.96044891234972    2.10117213871421    9.81648846786418
C        -0.21020939919611    2.69112326811121   11.59676912835764
C        -2.34862051283063    1.52087594926302   11.29106215316127
H        -2.36845280863814    1.59163025143858   12.37735591704415
H        -2.39927271325566    0.47243681530275   10.99353150574981
H        -3.20959667382638    2.05074964628580   10.87971353745557
C         2.56322107099991    3.33609560713712   11.81114461980939
C         2.81397988455748    2.11789269317757   12.44083689042665
H         2.12701921260195    1.29151236638230   12.31934255250958
C         3.93259440300443    1.98434461647772   13.24048701726537
H         4.12687213333413    1.04454667420721   13.73563874610389
C         4.79958313416947    3.05299482804533   13.41364258445688
H         5.66816785908377    2.94160864895714   14.04522873232446
C         4.55094268360300    4.26337576037325   12.78794739647520
H         5.22244401072910    5.09661508756041   12.93001660918069
C         3.43248370266476    4.40835189649291   11.98697723347182
H         3.21577785691951    5.35150503455426   11.50033628847841
C         1.42485881302816    2.62601404224271    9.24320104702469
C         2.41336584332270    1.65296573554793    9.13933889030397
H         3.07292327226054    1.45989413217198    9.97322058361310
C         2.55665660696928    0.94690616064974    7.95796575008271
H         3.32753012131117    0.19525815389077    7.87624725435787
C         1.72182484642209    1.20295659351275    6.88213222737435
H         1.84076682597200    0.64867108140260    5.96367296944244
C         0.74472653931862    2.18202018143563    6.97703479265390
H         0.10548281175168    2.39602310680243    6.13369086119352
C         0.59922945354151    2.89721830473722    8.15063722669001
H        -0.13207447376106    3.69505541865454    8.22240380114333

