70
CSD_code = RABFUY | q = 0 | S = 0 | Stoichiometry = C21H41AuClN3Si3 | MND = 2
Au        4.34626272404129   13.99750383013557    4.46953185587346
Cl        5.73892845682651   15.31169883663557    5.81392391815278
Si        2.96406487046095   12.78364219071200    3.08891155382162
Si        3.33797021184561   10.17759998887239    4.38295170342530
Si        1.51907838479745   10.25758209949663    1.91817747339563
N         2.54908457827024   11.10101365803600    3.08281933197058
C         2.85753683940001    8.33390910988817    4.41372872051304
H         1.86242957616966    8.18284389459098    4.81581622201976
H         3.54814590407788    7.79893706523162    5.05891071077668
H         2.89506489754132    7.86655677688685    3.43773220538742
N         3.13615021382809   13.37892942919725    1.36133277409392
C         2.81417558123693   10.92061602613334    6.05193394078444
H         1.73627313149557   11.02134523736290    6.12937943670808
H         3.25185796058634   11.90048998993859    6.20904404306106
H         3.14118814517433   10.28423031593389    6.86754528266047
C         5.21899938491385   10.29476261852041    4.13208242395603
H         5.58541016478967   11.29126392740403    4.35455662508664
H         5.50982211814414   10.05553231219627    3.11434637895663
H         5.73604369109678    9.60497826494345    4.79089730345930
C         2.61190239676103    9.05049108864049    0.91149381372714
H         3.54910984795563    8.83798064695866    1.41511473751114
H         2.85077437972407    9.45247643099845   -0.06934537687699
H         2.10158928054833    8.10585872387289    0.75053042809606
C         0.11985859871871    9.36918448767993    2.87213195588207
H         0.05958471826156    9.70799698894984    3.90112727655411
H         0.27045882064272    8.29570265176083    2.89019388061579
H        -0.84585445187620    9.54820222591411    2.40820015407600
C         0.64068120755751   11.36550333851060    0.64303574117362
H         1.33916540521752   11.96256280249197    0.07104242671568
H        -0.06425900763539   12.03981328522698    1.11419373563049
H         0.08590577672734   10.74508445951426   -0.05548082264534
C         4.22700067344776   13.41863319420590    0.41249722616170
C         5.11479179021664   12.21604418549121    0.73820987637471
H         4.51672693847982   11.30971496862743    0.75649941785691
H         5.57281642877851   12.34578780309510    1.71435740042251
H         5.89853808495959   12.11368860522286   -0.00773980719938
C         5.04304291603260   14.70937412033159    0.56345991167502
H         5.31374016040312   14.86230320741660    1.60623086366633
H         4.47769241405966   15.57076470953957    0.21648121933755
H         5.95443002291919   14.63852726011042   -0.02469272643101
C         3.71750347856348   13.29589264149115   -1.02930418753835
H         3.07333964948420   14.13194583352082   -1.28995622299304
H         3.16330438348529   12.36897757585980   -1.15851253307909
H         4.56190845531240   13.28940780299702   -1.71384853328844
C         2.08979193352093   14.17197302815716    1.50464010862946
C         1.71378704832776   15.30900717911416    0.65405590948547
C         0.86248971719166   15.14871559053269   -0.43462686482931
H         0.46170127388026   14.17169100040953   -0.66028700862139
C         0.52685800383946   16.23899495891426   -1.21774113497788
H        -0.13393624156411   16.10770254056656   -2.06142624654364
C         1.03504583075066   17.49281221686987   -0.92100260536567
H         0.77101363684610   18.34151983237873   -1.53339175737939
C         1.88179080066412   17.65642035836378    0.16268578526394
H         2.28007969783078   18.63166435217448    0.39819026899925
C         2.22316888333627   16.57032762696187    0.94945435035533
H         2.88736236913933   16.69357653350387    1.79278740436345
N         1.49468066183266   13.77600708573778    2.61373583210859
C         0.39177759217509   14.34672589482245    3.35445461233796
C         0.02456870882807   13.31058042643002    4.41897387833128
H         0.86163819011321   13.16574921897985    5.09571108213621
H        -0.20363136599190   12.35885808147788    3.94675803144654
H        -0.83849116792132   13.64326186549523    4.98951399424858
C        -0.82601826409323   14.61375834370475    2.46158895910532
H        -1.11878857109860   13.71167211529938    1.92974337351988
H        -0.61898116698859   15.39548648164261    1.73570906686202
H        -1.66220161829395   14.93391301005935    3.07805984303546
C         0.81684770066459   15.65431121469023    4.03619711732130
H         1.01020159116907   16.42852541854146    3.29776729601297
H         1.71888998892183   15.49868732159035    4.62403013621327
H         0.02531556347180   16.00050369304044    4.69597680841447

