73
CSD_code = RABFOS | q = 0 | S = 0 | Stoichiometry = C21H41AgN4O3Si3 | MND = 3
C         0.15436800753787    7.77042424195938    6.92966310624173
C         0.55766203446227    8.69323219681444    5.96941619456055
H         1.58704269169931    9.01712553590248    5.94046218907524
C        -0.35645247131750    9.18671470266142    5.05570109742983
H        -0.03691211591760    9.90230417286071    4.31317820871738
C        -1.67557040122241    8.76550619009497    5.09217077445932
H        -2.38654418996255    9.15222354321460    4.37808889969419
C        -2.08100522019472    7.84706471782448    6.04602520971154
H        -3.10799939382892    7.51590771642140    6.07823652922420
C        -1.17179069626574    7.34951758572943    6.96311393802038
H        -1.48527950112468    6.63408705236289    7.71004498300272
C         4.12156932695961    3.57824306939276   10.96899003393725
H         4.43954892901457    3.25105871146009    9.98478336834228
H         3.05676950439782    3.35272738580940   11.06716098253391
H         4.64786780978460    2.97214881593806   11.69864332227746
C         5.52852838830094    8.81420934142637   10.17594364657432
H         5.32878417160210    8.56522990240053   11.21300801256886
H         5.03736208882859    9.76017003758083    9.96468419143113
H         6.59633836091676    8.98373364573421   10.07648209388442
C         0.78166778414485    8.80557290320001    9.84526719364137
C         6.38342113188682    6.39891461170144    8.28511865326169
H         6.18197245883594    5.33482564702062    8.35040302153319
H         7.30585189274522    6.58991782887045    8.82188876012075
H         6.56665489830018    6.63749359790182    7.24146042888049
C         1.10231053273610    7.22734380542291    7.91321297012654
C         4.15165359855617    8.31516848974293    7.49391607160779
H         3.30034340722461    8.91871937429835    7.78198659696937
H         3.82033079081919    7.61182681358059    6.73963926232438
H         4.88383710657335    8.97277519697795    7.03368140496491
C         1.59084141071880    8.94090318836266   11.13642909436085
H         2.64794507093349    9.02532703696534   10.90334121061892
H         1.44320779060878    8.06177673225102   11.75816334910382
H         1.27305088840910    9.82088442653296   11.68924197721616
C         3.57134600335508    6.00072970040072   12.83488881066022
H         2.53314067425145    5.66209339154976   12.84185507626768
H         3.56510463630543    7.08084838364007   12.93443015664752
H         4.04731900241832    5.59421186492220   13.72092303394336
C         0.85443881678226   10.12155956873153    9.06045188764309
H         0.27034757569781   10.06811304890944    8.14547704676360
H         1.88599150701017   10.35456085942629    8.80654129733343
H         0.46010848978262   10.93050646615337    9.67005409326722
C         6.35229094468613    5.61155344979998   11.52460811652599
H         6.68223698436938    6.64235308586244   11.50282197574621
H         6.91858027205529    5.06604944781590   10.77887403686134
H         6.61946877653193    5.20230746124276   12.49408622307587
C        -0.67833595306631    8.48903655131733   10.19541843591035
H        -0.73992326854901    7.51136118648948   10.67606718104787
H        -1.30076486863725    8.48595796115233    9.30408531909778
H        -1.06469282541012    9.23752302913842   10.88224194552213
C         1.80365307613590    5.07865719172724    6.80501018953229
C         3.02595269195523    4.20614847873617    7.09832936441043
H         2.91688774652981    3.74014123642649    8.07343238375859
H         3.92406326421127    4.81702493717588    7.10759260610662
H         3.12719437763575    3.43075489407640    6.34371699525561
C         0.53129812458641    4.22848650157960    6.92282127611779
H        -0.34581793512288    4.80747477851694    6.64512947172245
H         0.41163049556478    3.87451132692836    7.94750638199093
H         0.59779077087051    3.36782708693402    6.26240356134699
C         1.91164264797231    5.64585612651116    5.38440549719132
H         2.77182622626758    6.30559796032149    5.29991479513249
H         1.01841827351045    6.20050765322223    5.11049340212679
H         2.03551016330269    4.82936437136031    4.67757836323950
O        -0.25682261123852    2.70518433564644   11.68824636945728
O        -0.42399800778386    4.35811564991164   13.02158282744648
O        -1.27594775107831    2.47393254132792   13.54786584026615
Si        2.14863554183973    6.11376508410513    9.62641730535634
Si        4.93542934487799    7.43334338140159    8.98861222344289
Si        4.47510791346020    5.42570700637075   11.26160511382991
Ag        0.75846704085686    4.68549425482290   11.01996239731369
N         3.85436510578086    6.35657475856177    9.88065953378426
N         1.37584114429571    7.71103494263011    9.11062474658116
N         1.80568818765323    6.11648302147545    7.81087750989616
N        -0.66724868584255    3.16276880525360   12.77244043195729

