88
CSD_code = RABGOT | q = 1 | S = 0 | Stoichiometry = C33H51IrN2P(1+) | MND = 8
Ir        0.05073917054612    2.85838777610494   -0.03258919606715
P         2.05881884392217    2.74886446873253   -1.25931264348512
N         1.01449820253402    2.27183813962536    2.75308611746676
H         0.38147164647340    2.95856210192016    3.12835610769185
N         2.00390479582718    0.94200407912730    1.36034265976406
C         1.09464511354581    1.93973335011649    1.44489863661462
C         1.86722630153999    1.50152196633934    3.51139947295348
C         2.51351780920603    0.64620154926656    2.61026850437190
C         3.45865361551118   -0.26246189080935    3.06037031243487
H         3.96840946732356   -0.92889125298727    2.38247964119132
C         3.74089801245073   -0.30568964447875    4.41635161632537
C         3.08363540810414    0.55624243602495    5.32061523702206
C         2.14236724071270    1.46593005974496    4.86734580243284
H         1.63725219357432    2.12620506138884    5.55484291898252
C         4.75376185767354   -1.28086173684610    4.92556118970453
H         5.16858537145179   -1.87016472455002    4.11296823777141
H         4.30200569847641   -1.95863838987201    5.64796192106869
H         5.56827502920966   -0.76202656743015    5.42850142657480
C         3.40260350561186    0.48914576259334    6.77952079156104
H         4.45839656445752    0.69230992777226    6.95184381874502
H         3.19187625226341   -0.50430669853690    7.17202852301698
H         2.81570097818019    1.21250784421426    7.33806524086111
C         2.39242554115861    0.31139141598294    0.12659272308333
H         1.49230754839482   -0.05101263543916   -0.37921486479944
H         3.03625843820306   -0.53745713667244    0.36308519379651
C         3.13023324270177    1.30401162004640   -0.77201547636107
H         3.47157161806422    0.79261349039051   -1.67281819734191
H         4.00426622207895    1.67651315572464   -0.23551799691241
C         3.20385294365893    4.19011751893215   -0.99514181619571
H         2.65673774860878    5.06233860239135   -1.37008314568308
C         4.53579168006286    4.10429428531184   -1.74145183918712
H         5.10857637840048    3.24145796350694   -1.39786169454102
H         4.37123890463932    3.99618594570272   -2.81383589911077
C         5.34969891311191    5.37402950802207   -1.48781781232361
H         6.30564791059355    5.30070770276481   -2.00792817676288
H         4.81545783887238    6.23565423869627   -1.89449696790388
C         5.58529979292087    5.58298275498953    0.00448572893242
H         6.17459671698962    4.75341786435363    0.40105006941611
H         6.15225137271062    6.50055522733401    0.16428067610856
C         4.25439578377714    5.65981362275300    0.74558012323060
H         3.69494427107054    6.52922672436986    0.39168515513053
H         4.42831685408012    5.78740577507810    1.81547801021994
C         3.44169840001784    4.39071695256055    0.50233694577275
H         2.48412439374388    4.45021505623411    1.02353736012688
H         3.98767901893498    3.53916465061496    0.91556854433855
C         2.00672201897117    2.51054334672936   -3.10185573699901
H         3.03088675883270    2.28697885381357   -3.42657332196536
C         1.10747551330709    1.31966546428026   -3.43248396766195
H         1.46306066094815    0.42171944826918   -2.92304553154296
H         0.09919952831062    1.52833130787946   -3.06918663050842
C         1.07103075168573    1.07945979007400   -4.93992010211778
H         2.07251340250671    0.82599485561663   -5.29425037627808
H         0.41614271208643    0.23553653544036   -5.15946326423014
C         0.57730505534769    2.32603803493784   -5.66622251152919
H        -0.44867127364101    2.54216352593022   -5.36149295759842
H         0.57643634437449    2.15359838480862   -6.74279439281843
C         1.46827698270897    3.51802867015716   -5.33428054283935
H         2.48064963224879    3.32754799252005   -5.69728945947686
H         1.09820628734087    4.41284903208605   -5.83742134902924
C         1.50614669094433    3.75630423095823   -3.82619052067465
H         0.49908930453401    3.97920066826176   -3.47348814322093
H         2.14963626606229    4.61227922676483   -3.61107925621029
C        -1.49380430618626    4.13365956004789   -1.04638401557145
C        -0.55921089886448    5.04096017614965   -0.44131052061301
C        -0.56918775023137    4.83086680172481    0.96055417345911
C        -1.52173916839345    3.80060575280109    1.24354160701723
C        -2.11407725011466    3.39281411023406    0.00340561213080
C        -2.05060636733860    4.22737887998337   -2.43556243862599
H        -3.05567364395905    4.65065076922907   -2.39039951638855
H        -2.12576661009177    3.24800344671566   -2.90598157447516
H        -1.44711859668774    4.87426896850866   -3.06743597515527
C         0.09422121155275    6.19306753883761   -1.13217398100888
H         0.36082869790656    5.95579536330208   -2.15969174518268
H         0.98809945633717    6.52316895372369   -0.60659520585116
H        -0.60409358011767    7.03244928106104   -1.15416768233553
C         0.08131410027513    5.71985317166018    1.97457142289575
H         0.95488859877624    6.22099658703657    1.56309713178715
H         0.39720206457013    5.17740134409830    2.86563116192572
H        -0.62424535420138    6.49117822862932    2.28987417094907
C        -2.08253900979674    3.45277221422768    2.58910504669970
H        -3.11424237351380    3.80348690883106    2.64526404187199
H        -1.53173648851265    3.93664314112408    3.39416625509715
H        -2.09472360227929    2.37664350900790    2.76051725250436
C        -3.34000925463923    2.54929962611772   -0.12809439666207
H        -3.38025375839111    1.78438821951633    0.64331948066379
H        -3.38468901220327    2.06534693523567   -1.10001499914240
H        -4.22243282652083    3.18400596343652   -0.02416275701132
H        -0.27502552535017    1.44639725911501   -0.53273746429827

