104
CSD_code = RABHOS | q = 0 | S = 0 | Stoichiometry = C39H60N3NbO | MND = 4
Nb        2.86102108327824    2.55040711701879    2.64365095066537
O         3.56726425932255    2.46667008610137    1.09579912614470
N         2.55347588259255    0.61608152703962    3.05485535761800
C         0.34287568427123    4.02163252389236    3.28399766601277
C         4.19551025609400    3.67437085238525    5.06646330736698
N         4.31180740285834    3.44538289962751    3.70282468218470
C         2.80853347898460    4.41928779162146    6.92459493400041
C         2.99847701857769    4.20741421807186    5.57000301929654
C         1.92613438046539    0.19908853407793    4.22306654009554
N         1.22118763453111    3.64198207013409    2.27617960305837
C        -0.08068067394244    5.34745737328894    3.46629141998302
C        -0.04661366203392    3.28303852642770    0.13813895535661
C        -0.96113367852407    3.39832447828213    5.24203577978743
C         0.93792790633945    4.16618781348077    0.94864609940125
C         1.75627627018175    0.32222237452190    6.64657705625959
C         2.36895010015339    0.69055551858334    5.45936342579161
C         4.55394713841126   -2.00331353541505    1.15234590217807
H         4.61748669680804   -1.42298090201357    0.23506315163683
H         3.77221175363183   -2.75088908079076    1.03431179761079
H         5.49985123911563   -2.51979888935049    1.29943321391579
C         6.13490955085754    3.22717072893270    8.30151754149623
H         5.77575735526692    3.22384806311521    9.32769527009120
H         6.93898277879274    3.95923334687509    8.22271734513079
H         6.55184922786182    2.24806616602975    8.07196808862457
C         0.82634292736766   -0.67206537680395    4.22241942012789
C         0.67642677607628   -0.55028023873868    6.60853538449553
C         0.45476209275803    1.83781192971891    0.10625932771250
H         0.38191241160012    1.38484664242426    1.09785707338348
H         1.49877377735031    1.81142847719820   -0.21322195723601
H        -0.14159525709595    1.24576088568938   -0.58548291091135
C         3.83299180333321    4.10334158194171    7.80936092013075
C         5.20258220349410    3.35898862837248    5.98971927340949
C         5.63953779475379    5.29218262983853    2.64223788360676
C         0.20254412980826   -1.04484786909942    5.39918736097952
C        -1.36793616442222    4.71626540191355    5.38538985390515
C         5.02944087323218    3.57115733102718    7.34731115890533
C        -0.11423379670088    3.06194803552066    4.19701788049963
C         2.87330903655924   -0.42857420360533    2.09369380643345
C         5.58027156402688    3.80820292472328    3.08980437560952
C        -0.92579448356726    5.69643482333366    4.50353878798528
C         4.25478037820810   -1.08837220874749    2.34335217296994
C         2.27853655902208    0.82346233870066    7.95971195612605
H         2.77163575400308    1.78552435695371    7.84218641377926
H         3.00600151999990    0.11719204174704    8.36200815955079
H         1.47304741240968    0.92172879992780    8.68488701595424
C        -0.97039035110485   -1.97949992357868    5.37964706040734
H        -1.39151370638119   -2.05888946507381    4.38027709290101
H        -1.74570182678919   -1.63751278425804    6.06278258409264
H        -0.65958022863120   -2.97442619661120    5.69955822206781
C        -1.44710654440954    2.33351041380707    6.17885117202958
H        -1.97041123068029    2.76971662252878    7.02665376041443
H        -0.61399153908361    1.73396270894937    6.54216118455910
H        -2.13204275442861    1.66238912602759    5.66024502616705
C        -1.37314890939074    7.11788258469053    4.67785954760327
H        -0.73473991797863    7.80099469408153    4.12250044899922
H        -1.36069972155725    7.39998824242601    5.72912459100481
H        -2.39454879695001    7.23374213264490    4.31422611151541
C         4.23006573241712   -1.91964068781060    3.62836666301243
H         4.01036890992193   -1.29558351849658    4.49153463101872
H         5.19576025220225   -2.39576007197645    3.78659743635969
H         3.47077185701962   -2.69732429853222    3.56932733583205
C         1.50864891887438    4.97025321972450    7.42691792375359
H         1.08051834942356    5.66757252467093    6.71034260034907
H         1.64308498999650    5.47437332678402    8.38138367024742
H         0.79275776439254    4.15949413176461    7.56559154001245
C         6.92964822005287    5.48461450174564    1.84002644014014
H         6.91810202524150    4.86213746195871    0.94859575207888
H         7.79888759248985    5.21629491890509    2.43695844421081
H         7.03413068666189    6.52310282564679    1.53376708105519
C        -0.09631170184587    3.83365269845151   -1.28995454586259
H         0.88384581875039    3.76815933872012   -1.75604371335498
H        -0.40992496403733    4.87554567152568   -1.29085607014573
H        -0.80227191602067    3.26494728797716   -1.89109237597313
C         5.65370659580899    6.22185523442245    3.85814794595814
H         5.71574417231632    7.25975487568433    3.53686569014398
H         6.50992384780529    6.00941051572641    4.49568291162536
H         4.75022588507495    6.10083340852943    4.45164857848734
C        -1.44818080238996    3.33533541132501    0.75114885255514
H        -1.44192962833279    2.95500886071483    1.77006270083919
H        -2.13759032370640    2.73151083961837    0.16422412122168
H        -1.82157261976988    4.35751410662432    0.77248608233764
C         5.33755075960266   -0.01147774359726    2.43886007666093
H         5.21570518618450    0.57603400571886    3.35190684276481
H         5.27263500336045    0.66075269416986    1.58053882492703
H         6.32499693423946   -0.46894678460435    2.45547115858988
C         4.43748416503968    5.61647844430230    1.75258134511669
H         4.35215060237608    4.87530168404607    0.95487092786202
H         4.55217318191791    6.60295778703913    1.30718530223733
H         3.51412225599372    5.60902264906339    2.33688565307128
H         5.71890498109510    3.18168140206045    2.20067952602899
H         0.43399738924821   -1.03829488601872    3.28312571067448
H         3.23846212120320    1.34102133204159    5.49078924883982
H         2.21604861515309    4.50107082353112    4.87614010152880
H         6.12854524909764    2.91545644339096    5.65024520525559
H         6.42061130538990    3.62808904062395    3.77092764669419
H         0.51633487924280    5.17737147093722    1.00077601560347
H         3.69680081936426    4.27555689653492    8.86761181316836
H         2.89088762053133    0.02216622956834    1.09426758718046
H         0.16965118385012    2.02197991286418    4.06215610529238
H         1.88222479630320    4.21478296063419    0.39347454294786
H         0.19692913233344   -0.84857238146141    7.53017337452080
H         2.11625586501429   -1.22233522749203    2.10158884993891
H         0.28246629036765    6.12260101858221    2.80492209133163
H        -2.03321886832824    4.98900495428861    6.19209196112706

