103
CSD_code = RABHIM | q = 0 | S = 0 | Stoichiometry = C39H60N3Nb | MND = 5
Nb        9.42240321877430   14.71318349137319    3.40837521493531
N         9.01703470494131   13.01531305530516    2.42930275716545
N        11.23117292276379   14.94848211963444    2.59926586412218
C         8.67591704983380   12.05357352755781    3.36375657816672
C        10.85996394067880   16.27487495301952    2.77540216345239
C        10.76475859355133   17.18603440852042    1.54620053922603
N         9.72933280956365   14.66857107768324    5.36955325443835
C        14.85434702057132   13.10508241404806    3.47280242813179
C        13.71512211049662   12.34266857159843    3.24210994120905
C        14.80800597632132   14.49195743087119    3.38900983497064
C         9.37701511778825   12.59009850337775    1.09830122086113
C        12.44150039834402   14.38041684692513    2.85889300857715
C         9.32787681298400   10.81942800695929    3.50265643786193
C        13.61441681793665   15.12108047758635    3.08335232825052
C         9.00469878473706    9.94331124291245    4.52530092669228
C        16.04710320303517   15.29646765979560    3.65127877547327
C         7.37301877741062   13.64899156219912   -0.01007395523787
C        12.14875501271413   17.74187288772758    1.17913098961356
C         9.82731048350267   18.35114142564962    1.88283182805858
C        12.52819429425873   12.97975349662367    2.93241220074411
C        10.21111379793929   16.41081511945429    0.34905816269753
C         7.65235622954665   12.35347362172792    4.28228584060360
C         8.05008838877415   14.60416932909161    7.17377316806705
C         8.16317534333595   12.35171231655690    0.16167934548988
C         7.30703500583856   11.47810056618515    5.29816401924731
C         8.70062988761712   11.89692324422946   -1.19780869909410
C        10.53054615771046   13.58930955068031    5.88220628121221
C         8.40489967728908   16.58247322158903    5.85220052540453
C         7.99819814927776   10.27822990667704    5.42142105181311
C         8.75405874261533   15.25337914603533    6.14661814689624
C         7.37790131607414   17.22636016190343    6.52398967870194
C         6.16494621600687   11.79300291019039    6.21817589143911
C         7.24991936664872   11.26604958070561    0.73519590009154
C         7.03719747389809   15.24569796828535    7.86239496008143
C        11.64333867854167   14.02393587051538    6.87561874605608
C         6.69885225184933   16.55326067372237    7.52928771716128
C        13.77258472824535   10.84411889048714    3.31459313542217
H        12.81401113321377   10.43294376492452    3.62629437339312
H        14.53876317524011   10.51868430051715    4.01542673864673
H        14.01615186618803   10.43159707298791    2.33431093190789
C         9.75763428220688    8.65480543103311    4.67838728355607
C         7.03018755947059   18.64038224110652    6.16373651079790
C        12.30487801752528   15.31061789346506    6.38041589509463
C        12.68459626871998   12.90273778060557    6.93265431308195
C         6.29197279451540   14.54031015987380    8.95768774303020
C        11.07661127166651   14.25473602355559    8.27855923122755
H        13.57953231426755   16.19824078018326    3.02362806831709
H        11.40267823798140   16.79079600758382    3.59223726164223
H         7.07272644363949   13.26798484579031    4.14609500030685
H        11.63662682393036   12.39610306225840    2.74051621141550
H        15.78657006329354   12.61618093668049    3.71687918144755
H         9.96590566905204   11.66249373783464    1.11182698960339
H         9.99953843714057   13.38224101094097    0.66081215897317
H        10.11249753351296   10.53683498439906    2.81409921907068
H         8.08311927928646   15.56721587262416    2.93536575917302
H         9.91983252624368   12.80130728143722    6.35453603980068
H         8.29606887453914   13.58522798208078    7.43510847711994
H         5.90528772556034   17.04907092788845    8.06978513358263
H         9.23253999628773   10.95198312713782   -1.10748791537448
H        11.03854583753843   13.13011204216911    5.02023789397036
H        10.12933281970449   17.06488795641828   -0.51693404213217
H        12.06885952773724   18.41971896023044    0.33102041803215
H        10.87853920545158   15.58658153993585    0.09833132874295
H         8.98181121987227   17.12133646808702    5.10256129993970
H         9.22384423260641   16.01292112107948    0.59101620197036
H         8.84284024006637   17.96781721216710    2.15017234046646
H        12.82300270951484   16.93270831074056    0.90792057405901
H        15.88461589326634   16.34787681651197    3.42734984256783
H        12.57755695332323   18.29408718260533    2.01333631614582
H        10.21844931568235   18.92189026242879    2.72282782861752
H         6.46289595544604   13.46347703681976   -0.57643420778217
H         9.72631055450105   19.02013858935636    1.03102599644474
H         9.38366489385882   12.63765053985719   -1.60773424571443
H        16.33884902118033   15.20745832366419    4.69786702812247
H         7.96676436744240   14.38660656767804   -0.54564131730877
H         7.88128630928898   11.76047898186562   -1.89969945694319
H         5.97892511753852   12.86382193267368    6.25820095295770
H         5.25930996825110   11.30099854521783    5.86061009301170
H         7.90267691332701   19.28433508674257    6.26601946765134
H         6.23777308663403   19.02244252008713    6.80259374156109
H        10.60570022643855    8.79610276854820    5.35018634666376
H        11.57587600240190   16.11950312971536    6.33079107564455
H         7.10049010736978   14.06187638672019    0.96273777090510
H        10.34494782195990   15.05916280972662    8.27608414560024
H        13.10098355858303   15.60750063032978    7.06030363141496
H         6.36442872788886   11.42882064707269    7.22414778220956
H         7.73716520365216    9.59053489975461    6.21323130416845
H        13.45462046023581   13.13848004606147    7.66429088630811
H         6.79934319168498   11.59292011504633    1.66951455990607
H         6.30054171527238   15.13784241366914    9.86806514007272
H        11.87955222775978   14.52676056051528    8.96140234379364
H         6.73632887773877   13.57173707415901    9.17339355059496
H        12.73617450221563   15.16296420827859    5.39130653064264
H        10.14072641415608    8.30927207637347    3.72064409244649
H        16.87413723705887   14.93268385011752    3.04351497129323
H        10.60073017666854   13.35233221822680    8.65843682358403
H         9.12013048786126    7.88214054981193    5.10201336420333
H         6.45090261765734   11.04065122732444    0.03179370716417
H         5.25138738518495   14.38773790668139    8.67095557336819
H         7.80597378451842   10.35000440048625    0.92527919850102
H         6.69959649954387   18.69170623787206    5.12694812648354
H        12.21816240736281   11.96126398375561    7.21837778219081
H        13.16222646950781   12.77274540116120    5.96344242478530

