125
CSD_code = RABJUA | q = 0 | S = 0 | Stoichiometry = C49H71N4Nb | MND = 5
Nb        7.81312618971827    8.96700283090401    5.07867475781241
N         6.21650216932130    9.42675528824441    6.23989574017566
N         7.08284990730257    7.33966509572604    4.04507941094320
N         8.91811983863817   10.24277830027220    3.98746796668568
N         9.26422498539951    7.61264076684205    5.84563054210237
C         9.07671190020352    8.47029329473813    6.71793267083026
C         8.48554509279912   11.52254884625353    3.67592945471326
C         6.23090360116293    7.62591502810109    2.99748691764106
C         4.98686442542494    6.99790344408141    2.79986240183567
C        10.17734513590345    7.44438981540859    8.68355589929170
C         5.26258681250865   10.79074560451620    4.52328683743726
C         6.58732644198354    8.62954555645366    2.08134807136770
C         8.44021006410038   12.04587667801454    2.37576387825360
C         4.60988263714859   11.92613709081281    4.07792868488943
C         5.53329338991014   10.57646252054527    5.88455646620062
C         7.96536125678494   13.32276585164823    2.12684897382633
C         9.62284230762801    8.58107993693861    8.06487598850627
C        10.01049618684697    9.69674326697101    3.19966518204882
C        11.41705210643309   10.19254611685828    3.62686884361442
C         4.60702091007889    8.05281596752068    7.63453793452349
C         5.93096421342198    8.85536178721179    7.54430008181893
C         8.97582406046418   11.02232180861439    8.16311398659320
H         8.74958199797876   11.76463953753444    8.92599679443654
H         8.06288319040083   10.78300280604965    7.61603456938433
H         9.69131072652429   11.46319409434817    7.46650734593085
C         7.19929352816244    5.95008703420703    4.43817968219034
C        10.03892274334236    9.84274668736761   10.07744100649128
C         8.03810319126418   12.34877274340734    4.71827524306897
C         7.53967478776000   14.11302417334876    3.18466376387340
C         4.35101852960736   12.12455289497245    2.61522580524264
H         3.43753243878280   12.69390827824750    2.45669335845347
H         4.26906268834487   11.16864782846926    2.10325795227913
H         5.17809250168341   12.68096770020463    2.17354279503132
C         4.19470664530086   12.87516280040971    5.00189198658179
C         4.52783148803919    8.37653644077638    0.89161844348533
C         4.14355107705860    7.36859898722898    1.77075009053533
C         5.11315649805231   11.56664772104424    6.78661707368136
C         9.55172763663821    9.78682502196014    8.78340971456209
C         8.04606546515882    5.07221739809387    3.47567629298281
C         7.57994328560701   13.63198541543710    4.48777225801854
C         5.75411882848358    9.00596116255517    1.03889699770562
C         4.44251211461814   12.69725420904308    6.35608728000465
C         3.95932058044631   13.71313680625050    7.34973998940078
H         4.04444870836733   14.72066640785614    6.94847899108310
H         4.52288694382909   13.65566099233412    8.27834835913464
H         2.90843057263683   13.53354075055641    7.58011626890509
C        10.59043054197766    8.72897732236850   10.69695207646894
C        10.64282802190512    7.54037949588557    9.98627599869329
C        10.27290793188890    6.13737329282036    7.96498928402894
H        10.61900163270094    5.35337284295677    8.63456203897918
H        10.96279044868452    6.22222869125087    7.12695174829843
H         9.30494963916125    5.85804276100964    7.54865462770584
C         4.52465446615869    7.44784362088967    9.03920376862509
H         5.38415566361148    6.81021999654904    9.23604313157042
H         3.62246639500739    6.84851544871642    9.13892223737469
H         4.49928830001993    8.23033614741312    9.79488842781475
C        12.44936860694667    9.42582500700519    2.79487436432489
H        12.35837726260729    8.35518255616620    2.96414890220449
H        13.45638808415730    9.73243609737711    3.06851583900960
H        12.31122381834710    9.61964193830920    1.73302363103099
C         7.18905269584032   14.52354462733485    5.62747590669744
H         6.27534027323396   15.06398694441809    5.39213038812808
H         7.97507663921397   15.25723582197233    5.81142881988919
H         7.03233289785328   13.94841640486483    6.53563635406352
C         6.20043197844063   10.06585315936875    0.07426900338129
H         5.38456898898212   10.36557490994196   -0.57946020547379
H         7.01503188776292    9.69031531033382   -0.54609361056949
H         6.56156815363994   10.94154781997248    0.61040145981239
C        11.58089037521646   11.69312832686197    3.37580804114053
H        12.59190978763520   12.00400944481388    3.63228752762624
H        10.88287060915410   12.26830610897901    3.97959533075036
H        11.40529719426279   11.93383749184725    2.32946082882067
C         7.89669263304916   13.83974456057140    0.71851605674645
H         8.04390626142219   14.91733989057869    0.69646872083866
H         6.91781623808784   13.62716127777958    0.28467908694053
H         8.65076111572843   13.36850032983564    0.09142730264390
C        11.64100432357762    9.89603109067310    5.10994393092605
H        11.54445946438958    8.82880728013776    5.30597861608334
H        10.90297506515836   10.42343090072442    5.71478056421202
H        12.63364626470276   10.21961629966080    5.41661720654733
C         7.25625837164698    4.69491465705048    2.22043144764723
H         6.97792412017883    5.57969798951061    1.65399610688362
H         6.34824293937297    4.15490687902625    2.48150389389068
H         7.85999719823729    4.05486352591410    1.57935850281409
C         8.42452036607012    3.79411713726741    4.23002969569131
H         8.97418179267780    3.11800367270582    3.57870837364071
H         7.53416834164721    3.27751024159743    4.58359218680671
H         9.05084875937436    4.03006013945576    5.08724008355940
C        11.11142943570173    8.82537239274956   12.09790269845950
H        11.52794029277550    7.87657797547775   12.42599093953385
H        10.31169678108833    9.10940181112797   12.78116324470149
H        11.88743161835566    9.58730265642600   12.16099206713873
C         9.31704676845133    5.81953491089964    3.07398343553776
H         9.06464021476295    6.66806451907245    2.44036386827024
H         9.98332676016226    5.16242184599492    2.51809490916022
H         9.83103070799783    6.18077228555434    3.96324687017689
C         4.63384150360086    6.93600423075819    6.59363877096359
H         5.47034591987850    6.26429997703145    6.78234265395387
H         4.74380147375755    7.36685030413541    5.59906337483795
H         3.71033870497306    6.36070055397456    6.62437388604415
C         2.81550160043362    6.69439893620879    1.58866529001958
H         2.64020602748036    5.95601683051997    2.36721521267923
H         2.77623961830498    6.19431847385506    0.62125676101938
H         2.01028299685621    7.42776421751322    1.61669076216723
C         3.38082581842373    8.93533352227034    7.39591422222375
H         3.38812936315171    9.34918177497840    6.39044091840883
H         3.34717121631962    9.75804747645132    8.10633893046779
H         2.47394780820334    8.34497910095856    7.51505747328584
H         8.09611199864282   11.97639432963212    5.73387333906296
H         7.56373343035063    9.09495464864778    2.16656707083611
H         8.77772766964513   11.45535745587690    1.53567493856781
H         4.66539325262926    6.21436968493655    3.47005438293442
H         7.69549813491233    5.93463154369001    5.41497957256783
H         3.66547626042632   13.75505223944471    4.66531128983664
H         5.91931335076699    9.62232446505519    8.33133330983169
H        11.06681321633262    6.66349781825917   10.45579434130787
H         6.21855048785479    5.47130777113129    4.55479441338255
H         9.98924267486841   10.77591048075473   10.62160951525281
H         5.30927382127698   11.46075487685836    7.84422116847723
H        10.00240235245485    8.60676044367479    3.32674294210217
H         9.89225360362266    9.90868061171363    2.12736266396414
H         7.18533857942636   15.11627918545523    2.99599360999771
H         6.74415732190302    8.15561800705571    7.78688433020497
H         5.52535526756499   10.01825760248147    3.80478565818040
H         3.86824859575358    8.65973478904942    0.08363071457021

