59
CSD_code = RABJAI | q = 1 | S = 0 | Stoichiometry = C23H32N3Pd(1+) | MND = 4
Pd        6.06275385626764    8.61557666940408   12.13949545694726
N         7.26463308359557    7.91806227778749   13.57721370288245
N         4.86152712432149    9.30958180247485   10.70763354808102
N         4.40860088324417    8.79564956646373   13.62535657585979
C         8.20277143103645    8.56371687577600   14.14698477286110
H         8.82309343484197    8.06672830365752   14.89883081279217
C         7.59979996118211    8.49240978641273   10.79473720273263
H         8.38668959235951    9.19961448100657   11.07569462085519
H         7.27130299558236    8.72478273619064    9.77913750129091
H         8.02882495171655    7.48808561467121   10.78653530640583
C         8.53631726303117    9.95191548158897   13.87475760003571
C         9.86731693692079   10.36320821207352   13.98238652316716
H        10.62638868870422    9.64137954578541   14.24478007235603
C        10.21736372734974   11.67464061941579   13.72714259786377
H        11.25017435972957   11.97838282705854   13.79740866776435
C         9.24124257202389   12.60153984974328   13.39573205786297
H         9.51294109954841   13.62922631358488   13.21128237142610
C         7.91282726332856   12.21286426044548   13.32148817396904
H         7.15455213580676   12.94684804435787   13.09536122814962
C         7.55482598221963   10.89516091084942   13.54819557840208
H         6.49804614005674   10.61036043881636   13.55247140983686
C         7.01683256544665    6.55215341734326   13.97647937126692
H         7.53807622277256    6.32607860040533   14.91754583859893
H         5.93647739640832    6.43136201344921   14.13868479440713
C         7.47119778856082    5.56034993840144   12.89834056907526
H         8.54143768948555    5.69373418087323   12.72504213649197
H         6.94010971870795    5.78046658632901   11.96568454860302
C         7.19992844857261    4.12482340529256   13.32770279882683
H         7.49425118135924    3.43741979537340   12.53967514181548
H         6.14370821794647    3.97556082029251   13.54069864651770
H         7.76452222913165    3.87682245188185   14.22342657407832
C         4.35038796543692    8.61457187405174    9.77110807214021
C         4.52083496428451    7.17804986303152    9.63102980933001
C         4.61503960883017    6.33591425547578   10.74533638268351
H         4.48309658831521    6.74257224601196   11.75318701431943
C         4.75582367278083    4.97013501679075   10.56647011477249
H         4.79715798871476    4.31472042616022   11.42320689452195
C         4.82913621147063    4.43338409836676    9.29072496860577
H         4.94599224570017    3.36877652822143    9.16009082131619
C         4.72981964389387    5.26122881577816    8.18322942251938
H         4.77367554569293    4.84305282349690    7.18968473936607
C         4.55851646188704    6.62140919963212    8.35011043035310
H         4.47489062736473    7.26615906845949    7.48782451344616
C         4.62343820134118   10.73230295842689   10.73929180822911
H         4.33747203866511   11.01319806794942   11.76265808711080
H         3.80277813056747   11.00317448274421   10.06023350365564
C         5.88764179684694   11.50725747581359   10.34411797561252
H         6.16581027109698   11.23290518042869    9.32429495345939
H         6.70674957657281   11.21445521478585   11.01157352504203
C         5.65510882214604   13.00993800639655   10.42097497980537
H         4.88480962780574   13.31706189803127    9.71744250400405
H         6.56988466821289   13.54251383367365   10.17691184159866
H         5.33848810621635   13.30431560000884   11.41914412567277
C         3.63261427249223    8.98140736525029   14.44928450699089
C         2.66596857822278    9.20803592029387   15.46892643613209
H         1.90317001601706    9.89738487252889   15.10652638455779
H         3.15040104203524    9.63669120143735   16.34647836689173
H         2.19382653392764    8.26480863129819   15.74419178774778
H         3.74993185213304    9.10256924824591    8.99783982882538

