58
CSD_code = RABLIL | q = 0 | S = 0 | Stoichiometry = C22H18F12MoO4S | MND = 10
Mo        5.10421443067267    4.59842042291102    0.02410005513737
S         6.83327701270669    3.15766285623081   -0.97955452029390
F         1.72121740797598    2.38753118562473   -1.34639300985848
F         2.55329977020349    2.12852954255651    0.62642714766135
F         1.24274512478123    3.77898832970206    0.22601395713353
F         5.39233068588878    3.19103135142635   -3.63507448651277
F         3.25772156804530    2.98261060684314   -3.75702632762929
F         4.37752628298358    1.84085829492075   -2.31250214585697
F         2.57468620854191    6.34802315502533   -0.92835616621339
F         2.93041908445397    7.00538959042929   -2.93405455147724
F         4.16898969152916    7.72305266169653   -1.33497917913248
F         5.35314042290332    7.49446836220366   -4.45399818726667
F         4.21375206575633    5.68552072803794   -4.71046874363324
F         6.29377012893694    5.69483949590614   -5.17266507785097
O         9.03374214277888    4.66585734672576   -2.92689282895090
O         8.41674367420352    6.60879214399039   -3.87210941451144
O         8.52191512532426    4.96909966969952    0.81737985521996
O         8.71511392835332    6.56239337533921   -0.74171757513432
C         5.92090140117232    4.66802107621243    2.17368893618122
C         4.59633176799950    4.17365857111376    2.25392753249492
C         3.73540424222751    5.19660714632282    1.79417045922861
C         4.52604961620984    6.33927225936347    1.47712932157925
C         5.86614506174306    6.01787880131076    1.72943950143217
C         7.98351790811894    2.24313970890253    0.16126132451179
C         9.30122162929336    2.06081090708045   -0.56581757227240
C         7.27191050184354    0.93488994082075    0.45662156690589
C         2.24750949432569    3.05596766855715   -0.31476783282774
C         3.41480672009436    3.88038413880348   -0.63864094518104
C         4.08927663295818    4.12226457853194   -1.85451800084031
C         4.27188547014115    3.05349032498064   -2.89617075388547
C         4.53404019879537    5.49695046047309   -1.95270443340203
C         3.55204204076485    6.62422360827989   -1.81711669852134
C         5.68057167212853    5.74560967617591   -2.87600792627729
C         5.39824054120936    6.16982756559724   -4.30230816479920
C         6.90213989157401    5.45191392944830   -2.41654741590303
C         8.18166714128051    5.66977839968440   -3.17091421589811
C        10.29613841211951    4.77693905401363   -3.57499661968310
C         7.00872425118552    4.94257051601238   -1.01559182873141
C         8.15890190641948    5.57210740708365   -0.33700886245473
C         9.61856456748091    5.57231527747168    1.49521922755495
H         6.78672653873545    4.19559824508534    2.62383564880725
H         4.28703914321210    3.23864819305623    2.69517726641235
H         2.65465360952520    5.19472994839582    1.85768410404701
H         4.14401569932176    7.31743081763308    1.22819299677232
H         6.68595926775961    6.72067902943298    1.71119895051980
H         8.10517813144263    2.83298788522284    1.06797427653256
H        10.00177317406725    1.51745284388753    0.06493494604410
H         9.73582775079328    3.02408615155567   -0.82152625445226
H         9.14826995392358    1.49830173048549   -1.48398614026516
H         7.11363012935594    0.37165088449574   -0.46001699384272
H         6.30303303526459    1.11848967382693    0.91736615077400
H         7.87375929159283    0.33390882356237    1.13449254647342
H        10.84291777102936    5.63406778118625   -3.17706393500822
H        10.15480397978327    4.91602097547818   -4.64780447839863
H        10.82615183390732    3.84941598838620   -3.37339033380093
H         9.77719633245940    4.98770721059531    2.39787953550782
H         9.39055808593289    6.61025940629156    1.74370542907329
H        10.50921044676816    5.55397427591265    0.86487088476319

