100
CSD_code = RABVUH | q = 0 | S = 0 | Stoichiometry = C48H48NP2Re | MND = 5
Re       -0.47947799007834    4.30448940562313    7.39337339804398
P        -1.39557216058716    6.49332153349900    7.73126187028520
P         0.15009270145400    2.51934336562901    5.92163619509295
N        -0.08269344547938    3.73443996092964    8.98089563777989
C        -2.44096736438359    3.75217402203833    6.98869058077058
C        -3.54911277473861    3.47931946731755    6.59257859512757
C        -4.89846889173238    3.12601039115296    6.15300183480362
C        -5.04210725372048    3.43896816605625    4.65744140215000
C        -5.92073734980610    3.94028877624172    6.95539062108207
C        -5.12215382304289    1.62824273862514    6.39353007172708
C         1.18865229722754    5.28174665609089    6.63250253974530
C         2.05457823311485    5.90768123921984    6.06859181132674
C         3.13204829484661    6.65108423594192    5.41632639433268
C         3.66042193430593    7.71791329452504    6.38264010055383
C         4.25919323135992    5.67870000951108    5.04737526039910
C         2.58903511247630    7.32464784467408    4.14881818918819
C        -0.24616983705773    7.85112811583131    8.10636912896976
C         0.72529721189668    7.56286497212374    9.06073600069044
C         1.62691619567997    8.53806572272774    9.44004972772465
C         1.56580319228231    9.79739340957017    8.86218829347753
C         0.60369289039764   10.08093953244088    7.90661787462610
C        -0.30805205491212    9.11118889295446    7.52634073828851
C        -2.69033628808346    6.74722547030255    8.97858109137213
C        -3.32281316661344    7.97954794931696    9.11540223641305
C        -4.29569785489984    8.14348155561115   10.08315929597858
C        -4.63144098838001    7.08766959895444   10.91763085228962
C        -3.98857200697971    5.86720278862923   10.79172504851841
C        -3.01415592540840    5.69338687746714    9.82452918609466
C        -2.15062719297573    6.94392761930884    6.14509932366187
C        -1.30098734451692    7.11177308141293    5.05274174441523
C        -1.82709593956042    7.34450878264595    3.79648444076183
C        -3.20092238621691    7.40321020487105    3.62228614261671
C        -4.04736926454507    7.22627362483794    4.70531387108575
C        -3.52818535404710    6.99015862940723    5.96583084044788
C         0.09093361502631    3.23049186601273    4.25448503280676
C         1.24203918385270    3.51974194566078    3.53098540268847
C         1.14050024515003    4.16668129976510    2.31218451624250
C        -0.10051780936166    4.53734725335777    1.81870825052343
C        -1.24862879103351    4.26251146305855    2.54534159717775
C        -1.15546436883673    3.61473722910138    3.76221811588919
C         1.79370134785175    1.76294014872992    6.07381224473554
C         2.23575777825423    0.81477513346315    5.15563561681113
C         3.48566703965083    0.24593340732821    5.31047707660188
C         4.28886366454838    0.61245930701345    6.38028163715471
C         3.84073326236050    1.54407059718124    7.30231429109078
C         2.59123179851318    2.12024241451342    7.15434973500017
C        -0.92541881626847    1.05492722940673    5.84465534694123
C        -1.36411852243479    0.57154150358019    7.07403216590470
C        -2.15783236503670   -0.55777954521819    7.12543168846951
C        -2.52016488146672   -1.20110138766876    5.95146561749371
C        -2.08843732857813   -0.71558680101955    4.72787091050303
C        -1.28779232386494    0.41206869955513    4.66838857814187
H        -4.79338976960204    4.48157720933014    4.45842344854310
H        -4.37651726284828    2.80736292672012    4.06928664743421
H        -6.06453692092320    3.25640243850245    4.32882285837469
H        -5.80146053491580    5.00442844625616    6.75868085467057
H        -6.93499230234536    3.64972132763105    6.68376410431173
H        -5.78238159050457    3.77400755555423    8.02228838193677
H        -6.12462417556490    1.33812672214214    6.08096661624643
H        -4.39674645828947    1.03927258903306    5.83393123020425
H        -5.00225199904770    1.39513244883816    7.44974293382920
H         4.03604008755750    7.25037893073341    7.29072369962493
H         4.46784498391701    8.28342624032780    5.91872902303786
H         2.86565516876757    8.40812030405064    6.66242750815719
H         3.90714093042385    4.93965652377189    4.32960429871320
H         5.09771750899222    6.21718718446331    4.60715392838247
H         4.60736254768874    5.15201528261570    5.93413361670454
H         1.83959217140858    8.07330796216042    4.40537566060013
H         3.39505636569736    7.81973301347081    3.60847898643322
H         2.12928887324346    6.58788762360591    3.48987873682968
H         0.76562864505763    6.55836922043096    9.46970331913982
H         2.38496747664338    8.31767966081163   10.17662148563194
H         2.27669781854762   10.55864879010540    9.14901764874711
H         0.56492786149289   11.06085805169913    7.45215193311804
H        -1.05454428965142    9.33207123269816    6.77413099123760
H        -3.05288427279643    8.80237508129852    8.46647289353677
H        -4.79323846162806    9.09673171758896   10.18998584876929
H        -5.39363823550322    7.22265212898694   11.67123266933628
H        -4.24531121206430    5.04981557732091   11.44888803890181
H        -2.49272072100370    4.74943824233322    9.70792531009949
H        -0.22874837315954    7.04468200047956    5.19905900195837
H        -1.16480910533044    7.47242138474739    2.95222812322088
H        -3.61338896068917    7.58026450305993    2.63939097740120
H        -5.11850382907002    7.26728755015958    4.56560696572737
H        -4.18370417585208    6.83425589844780    6.81114827435276
H         2.20827059773586    3.24310498217216    3.92928287686445
H         2.03469509858046    4.38783964857877    1.74630124861085
H        -0.17218951027071    5.04774713946349    0.86898931967091
H        -2.21660862397057    4.55948430711098    2.16744762856872
H        -2.04376512211504    3.41058503329691    4.34947929029330
H         1.60300806211097    0.52688996772261    4.32636947428535
H         3.83551648599344   -0.48683753424384    4.59744229672664
H         5.26502131960016    0.16406368981890    6.49477354743759
H         4.46443711844452    1.82098217147807    8.13909922584877
H         2.21468690447499    2.84878828872010    7.86440750552230
H        -1.08766909253225    1.11564659009140    7.97148969710399
H        -2.50432494158261   -0.93301114838157    8.07672146221998
H        -3.14950892517410   -2.07843351550888    5.98795155760999
H        -2.37935334565519   -1.21531763368893    3.81466675126774
H        -0.95861117983157    0.79425254460593    3.71052393873640

