72
CSD_code = RABVIA | q = 0 | S = 0 | Stoichiometry = C30H38CoP3 | MND = 6
Co        6.38618450091539    3.32977996362120    3.11536218744244
P         6.82070865863909    2.98133437264155    5.30390750971347
P         8.11019986895730    2.06567570285006    2.32746741397202
P         4.78313278053045    1.79101434631120    2.63514409130050
C         5.98581164364335    4.42126987172051    6.01407749269081
C         6.13995176949963    4.90186660668950    7.29006136302789
H         6.88090998721020    4.47859197684436    7.95459357043405
C         5.31921834090911    5.94853945599249    7.73090342655240
H         5.44751636224907    6.33534589020302    8.73227802966937
C         4.34667188495367    6.45895718963608    6.91376472232229
H         3.69422663009472    7.24565789355744    7.26847492618913
C         4.16693248888271    5.98100471405988    5.59888277706204
C         3.16364225575630    6.46862900602505    4.74001464069645
H         2.49552541988976    7.24330439383563    5.08979142698620
C         3.04940637924378    5.95049025708049    3.48049799390170
H         2.27001555891125    6.30461977709484    2.81764170340200
C         3.94356623132149    4.97557783642212    3.01158316502499
H         3.80549209149688    4.62951147462408    1.99533502191453
C         4.96567295527478    4.47525238497681    3.78854493852215
C         5.03383859926643    4.96269084079841    5.12190727511709
C         8.40324395611023    3.04375188056446    6.22003672525174
C         9.34444763817202    3.93894881469176    5.71858704202945
H         9.09065682262069    4.51194619512045    4.83733460430940
C        10.56612066295028    4.10495157187867    6.34145742292497
H        11.28816436836934    4.80410434278470    5.94353615453327
C        10.86278707130415    3.37416119025650    7.48107509236673
H        11.81838511790640    3.49556623750838    7.97018012951885
C         9.92605282821717    2.49459709481716    7.99678950560705
H        10.14856578840917    1.93558528923724    8.89485853314646
C         8.69994452903476    2.32940476383862    7.37517976480428
H         7.97426890996117    1.65012014562305    7.79873232788344
C         5.94101338895323    1.64027925673340    6.18453227965370
C         6.49533189076508    0.36163208140870    6.22920932653850
H         7.48034770087583    0.19495304102817    5.81671981193478
C         5.80705051560607   -0.68797908428843    6.80840603250715
H         6.25542131633694   -1.67120215444268    6.84468865075914
C         4.54415195662155   -0.48150432606982    7.34021014607102
H         4.00496396406773   -1.30124924529282    7.79189605613576
C         3.97835793472702    0.78132189798858    7.28848615749601
H         2.99287240185208    0.94824975944829    7.69984376457308
C         4.66774446163883    1.83412768071108    6.71271565861659
H         4.21780280127961    2.81614885540732    6.67796479983773
C         8.71696168272973    0.63866577326345    3.31835025723598
H         9.51522746414356    0.11437337923384    2.79286812400841
H         7.90136148311502   -0.05085300102968    3.51992971962053
H         9.09857282383038    1.02229912632867    4.26448930917232
C         7.96974840527745    1.24042542533322    0.68294415298062
H         8.89294052718428    0.71395059005335    0.44213472979889
H         7.77539637704559    1.99007753907270   -0.08176978338404
H         7.14390758857030    0.53336348655397    0.68895977424968
C         9.74983463774051    2.86081792605244    2.05657212828442
H        10.45702165713264    2.12591537886565    1.67225557542995
H        10.12212046947944    3.25250513286832    3.00125649664533
H         9.65875016257318    3.67601034655353    1.34180801852057
C         3.16108065463165    1.86077141900512    3.49559255239614
H         2.49273989287316    1.09715752559383    3.09808052956328
H         2.71491734990474    2.84349376796038    3.37043360773283
H         3.32224892942463    1.68628672996320    4.55774128803317
C         4.18144557170252    1.75950004270684    0.89528660413111
H         3.44078736399363    0.97247457262667    0.75662107208085
H         5.01805442308410    1.60162934824259    0.21893496004820
H         3.73358606890382    2.72286857755037    0.66363959977933
C         5.07054193561496   -0.01691034378319    2.87694139936674
H         4.18325754312522   -0.58116410225279    2.59135688404919
H         5.28564118628111   -0.19679792655424    3.92923069364019
H         5.91531175135061   -0.35563737906206    2.28253389164276
C         6.68699969222954    4.59925288369546    1.52898922523865
H         5.78643365439649    5.07680089681133    1.16827368629945
H         7.28788304213445    4.15749505988679    0.73862246880578
C         7.31895608807359    5.09984605120367    2.66669870776402
H         6.90080957782880    5.96216584232545    3.17299467833644
H         8.39784156219932    5.03568668699018    2.74495598609105

