82
CSD_code = RABVEW | q = 0 | S = 0 | Stoichiometry = C32H45CoP4 | MND = 5
Co        5.83518783975242    3.58944549481268    3.69880069347175
P         5.20932796258574    5.42190986264988    2.65152509092813
P         7.94106813652269    4.16053428888028    4.10533036955117
P         6.35305397809214    1.63985884269049    2.61988326147185
P         5.28635219092119    3.34167558905418    5.97579076832925
C         3.84356816288902    3.25586263838109    3.37337646229217
H         3.59226134100689    2.38649626983555    3.99269565695240
H         3.34482626969214    4.13000128022636    3.81168541986135
C         3.28672689243661    3.03781276788237    2.03412628480557
C         2.53809000639204    1.90372739562338    1.76860714245262
H         2.36529857010631    1.18759395243545    2.56214029107581
C         1.93915605267283    1.67354070885999    0.52933377578671
H         1.37207427695971    0.76579507506063    0.37414118313698
C         2.03894026210102    2.60601415856289   -0.46486064452603
H         1.55479183632885    2.45725570144496   -1.41954028735700
C         2.75222839380556    3.80141776344919   -0.24195975847057
C         2.79430754547668    4.80328755981937   -1.23202738412060
H         2.28230253610074    4.62756471850596   -2.16806140196453
C         3.45120479287614    5.97994782045586   -1.00565112856114
H         3.45642825720774    6.76130839916024   -1.75265462255432
C         4.14676672261912    6.17104290272612    0.19059961129303
H         4.68159053119385    7.09908351620759    0.33464714090700
C         4.16368448369547    5.20158134400393    1.17320843594564
C         3.41380578795368    4.01196801958933    1.00044454706774
C         9.15620708712131    4.38777118289263    2.73744651177957
H        10.16968702162831    4.42244363812350    3.13680227836378
H         8.93692344553763    5.32076609511025    2.22367221011500
H         9.07498147122715    3.57466505457580    2.02000720810174
C         8.97420942344038    3.07544681491469    5.19029153442034
H         9.80089287802263    3.64254440293030    5.61722704680205
H         9.37196909599865    2.25091038203025    4.60540984117722
H         8.36490355330947    2.66193527595014    5.98990448023730
C         8.25783132524518    5.77044572194765    4.94386135125117
H         9.33041455224599    5.94408625857584    5.03174617652436
H         7.80932455671726    5.77346567799766    5.93387307743557
H         7.81352261542030    6.56790425695447    4.35076091600229
C         7.97627647306507    0.76247291229207    2.74751190530255
H         8.00838110457169   -0.06942193570750    2.04450309419334
H         8.09425483697872    0.37766256242918    3.75894695741501
H         8.79623184137452    1.44129022106603    2.52991166354241
C         6.32086410564462    1.86223088883249    0.79489530427397
H         6.55139499055781    0.92830354064871    0.28300296265649
H         7.04974519897358    2.62180923862933    0.51812770680469
H         5.33375769951381    2.20911909718429    0.49897470933468
C         5.31411289736311    0.12574630185806    2.74221884213018
H         5.69391814040117   -0.64731558272581    2.07518720981876
H         4.29358028485010    0.36534526406945    2.46565804453401
H         5.33183757928747   -0.24203131001069    3.76636181719899
C         5.36132515592783    1.56895057351828    6.47341157389283
H         5.05672929523678    1.43589343582884    7.51106590136930
H         6.37380801023422    1.19504156938108    6.33534963533507
H         4.69709763315164    1.00451244185677    5.82274840494352
C         6.15251773836576    4.07244011879886    7.44028942885208
H         5.79381432157047    3.60945648054319    8.35896636655603
H         5.93913825844592    5.13935429624687    7.47800912231775
H         7.22780439737917    3.93312756436210    7.36877522680112
C         3.57725657358680    3.70451639587046    6.56814420631785
H         3.49344112651530    3.47189950807834    7.62916195129566
H         2.85393700542125    3.11357050102477    6.01354191460787
H         3.35812457958787    4.75878924654214    6.40999417060763
C         4.15431962332658    6.52520723493838    3.66839292728714
C         4.56977918404745    6.76405498408612    4.97478776087631
H         5.47185252665734    6.27843301849681    5.32301728676651
C         3.83779815218635    7.58471633250304    5.81153361343095
H         4.17296077382507    7.76904149335780    6.82331130026143
C         2.66600332066412    8.16610086807669    5.35310765874560
H         2.08578223014849    8.80321496429532    6.00503139022638
C         2.23694500616260    7.92013363853538    4.05985591140062
H         1.31833479636737    8.36462041054553    3.70373004622278
C         2.97623377750049    7.10710612776976    3.21739945681946
H         2.62984474385623    6.91989654935568    2.21117896863882
C         6.38178326400862    6.66268523474709    1.98118927801806
C         7.14174287235005    6.26863887841029    0.87987171719385
H         6.96274034236095    5.29046197608223    0.45132798202930
C         8.08901290476216    7.11234730777222    0.33464240165701
H         8.66116237383561    6.80020411355296   -0.52789069920858
C         8.31029585686343    8.36010418898532    0.89931210939445
H         9.05289473601862    9.02189205740968    0.47789060551280
C         7.57434139423475    8.75397120919207    2.00334491504129
H         7.74296886508102    9.72601033140943    2.44537442087298
C         6.61455670620107    7.91318606433871    2.54265939367419
H         6.03418744623349    8.24059885320200    3.39448989505263

