78
CSD_code = RABWIW | q = 0 | S = 0 | Stoichiometry = C37H33ClNO2P3Pd | MND = 4
Pd        7.38723820368811   12.79118650783274    4.24974405518347
Cl        6.95420354182826   14.67426978604198    2.98188500415979
P         8.67968664869167   12.81897988130377    6.72348398071796
P         7.56148226226702   10.86887628257693    5.38723478358859
P         6.58251736746284   12.06673929729428    2.35285590695823
O         7.71443425641264   13.82784044391440    6.17311102561122
O         6.47743568043967   10.44683091263298    2.48879900273944
N         8.07527628201373   11.29041904080649    6.87952408584509
C         9.30832009028764   13.31454457033814    8.33685242367425
C         9.06990760890135   12.54503962610702    9.46324752995817
C         9.54488489954849   12.96905288426749   10.69180228722911
C        10.25520044295258   14.15491049559633   10.78830807165514
C        10.49193916632716   14.92352363260899    9.65895719767987
C        10.01783875815697   14.50315808461399    8.43026069472600
C        10.11679388452200   12.74396673636303    5.58935288484249
C        11.07211531285893   11.74983842106114    5.75373567447288
C        12.10201248978037   11.62177531518054    4.84038200845380
C        12.18687251425973   12.49527344523331    3.76714371558193
C        11.24663224021664   13.50075801376875    3.60852186490029
C        10.19763015808379   13.62338176419591    4.51038323333293
C         8.67523229108123    9.55051842276963    4.81905647310385
C         8.95206914190520    8.47133393011158    5.64888581573445
C         9.89782943191336    7.53785105458900    5.26600894307431
C        10.58023459464291    7.69263757524717    4.06891108798939
C        10.32665176046789    8.78618821590169    3.25626332208377
C         9.37729910067813    9.71815444847491    3.63372610729699
C         5.86631040861543   10.23246860992142    5.56545888130571
C         4.90919638100610   11.24449993820569    5.65478605656650
C         3.57391808025115   10.92381327887404    5.81068388234238
C         3.18785925370054    9.59141570276732    5.85672281996672
C         4.13446402468799    8.58680192528919    5.74557475176821
C         5.47621551516387    8.90219032799216    5.60112639383234
C         4.90139610247097   12.55294021854617    1.86571035466503
C         3.83397613257943   11.86806136968264    2.43846032981834
C         2.53507215348482   12.23648830821609    2.13740726809601
C         2.29858008690337   13.28919038526444    1.26863911119296
C         3.36175480367749   13.97684242469997    0.70431627114879
C         4.66308054739788   13.61593749379809    1.00198132267485
C         7.62740850418360   12.32001809777423    0.88777838903251
C         8.94711468168792   12.68861612689175    1.11431246651298
C         9.81857721115035   12.83381624838766    0.05143779716481
C         9.37130527661134   12.60812563447043   -1.24113159003089
C         8.05557346546615   12.23891230272243   -1.46901341489511
C         7.17942220529311   12.09094898989177   -0.40719587666248
C         6.04643605330688    9.56583148333775    1.46206181784945
H         8.51416776281714   11.62571173087927    9.35485305180237
H         9.36183663717470   12.37637720330022   11.57658558857895
H        10.62529926112045   14.48402777618447   11.74864973392475
H        11.04455636912430   15.84845688266374    9.74015020107998
H        10.18500632406107   15.08872709859558    7.53587981637848
H        10.98656423134506   11.07960233149003    6.59792917136527
H        12.83900095962860   10.84170813553966    4.96386461912466
H        12.99504861398717   12.39768959197423    3.05667086015074
H        11.33146403180682   14.19904310130319    2.78728669598960
H         9.48665430391974   14.44938575510940    4.41663403774765
H         8.43599403185123    8.39083017301807    6.59571314856777
H        10.11297379142109    6.69228549099565    5.90366922703175
H        11.32218202180476    6.96406007391885    3.77550611268479
H        10.87522928543967    8.91489624741855    2.33416646821012
H         9.16960748064183   10.59066072883238    3.01956000712092
H         5.22745922956308   12.29807293929904    5.60178653704547
H         2.83178304580625   11.70563323133661    5.88475911735988
H         2.14434793823238    9.33710190321286    5.97374035072411
H         3.82611959267363    7.55122002881243    5.77198321661650
H         6.21602412921186    8.12010455508110    5.50639195861384
H         4.03049074404871   11.05528030730047    3.12531371311555
H         1.70861058966586   11.70520383537174    2.58643736937759
H         1.28456391464050   13.58026987439135    1.03710780931651
H         3.17593563205783   14.80450520680892    0.03611342170854
H         5.49617938924315   14.16562444250723    0.59000402034769
H         9.26558198620326   12.87776855695106    2.13919325595433
H        10.84384978792574   13.12424427917913    0.22631703600404
H        10.04806272477927   12.72498486935831   -2.07461380865601
H         7.70904505940822   12.06818798008872   -2.47778302619319
H         6.14904664607067   11.81321880828652   -0.58429743752375
H         5.08845507818140    9.88059164798102    1.04151178915486
H         6.79076624258484    9.50803508828126    0.66461430402696
H         5.93579414645178    8.58672246897719    1.92774742033808

