74
CSD_code = RABWOC | q = 0 | S = 0 | Stoichiometry = C33H35IIrNOP2 | MND = 8
Ir        3.00530668612054    0.95526849779229    2.39418557956343
I         1.52762082523775    0.72473659495007    4.56573547034141
P         2.28897286474365   -2.22637119735350    2.08560622621331
P         4.37894101558681   -0.73280474880135    3.22658555190471
O         1.67963590975913   -0.91296670805293    1.71608685392727
N         3.81379266791261   -2.13101216430581    2.68235316741046
C         2.39290348943662   -3.28002009690677    0.60400058917360
C         3.57880275299945   -3.44504266913380   -0.09195687758755
C         3.59562510845865   -4.17804578170871   -1.26572122981200
C         2.42436502595798   -4.73938150320473   -1.74703980387195
C         1.23478943004191   -4.56874365297205   -1.05595582710726
C         1.21938806066892   -3.83823870544522    0.11796750841406
C         1.25895216537058   -3.17497106296750    3.23765930922941
C         0.04796570884019   -2.68565517821576    3.69873805035841
C        -0.68658407341423   -3.42388105537801    4.61040970044497
C        -0.21086219122914   -4.64636207556331    5.05373994459678
C         1.00085683657364   -5.13673848216447    4.58928940896802
C         1.73733763197561   -4.40100541054707    3.68128709429458
C         4.62451788446469   -0.91137533590020    5.03136223048249
C         3.81006450979274   -1.81197583903217    5.70678994738792
C         3.96115591666443   -2.00503393564087    7.06632681268373
C         4.92893705272547   -1.29869720034851    7.76115235530766
C         5.74803033504518   -0.40556847399780    7.09070489079915
C         5.59917505420602   -0.20942141530822    5.72956706304906
C         6.11804989963257   -0.69983412612562    2.65323231250627
C         6.65789943986596   -1.89575726418298    2.19760846028975
C         7.97193630322967   -1.95506565236196    1.77090111159354
C         8.76126124953188   -0.81752539628100    1.80001953265910
C         8.23297460114509    0.37570552899827    2.26437899447079
C         6.91770101232495    0.43640287806286    2.69054495848887
C         4.05472169791603    2.45501765067756    3.48638506397734
C         3.73505626693628    0.54142977718287    0.30946715510387
C         4.30594532121132    1.72403670946386    0.71658731690727
C         3.92033165528108    3.07854130411376    0.15428818275629
C         2.74632897966213    3.79224711089382    0.85718225833089
C         1.72485876744699    2.87628878470920    1.48105425277774
C         1.16064509555130    1.81770263604880    0.86420219285858
C         1.46327497706127    1.41177616271835   -0.54828727736608
C         2.61217507117225    0.39458231378950   -0.67738059981434
H         4.48495356402509   -3.00269858280574    0.29821236344453
H         4.52191553724406   -4.31143883061386   -1.80641000165993
H         2.43748317751280   -5.31131106692295   -2.66354285368917
H         0.32190449708687   -5.00590892093159   -1.43419186429759
H         0.30018154958813   -3.69302893355448    0.67090427696146
H        -0.30571809687767   -1.72707598991162    3.35015394263374
H        -1.62641034480270   -3.04065285887963    4.97857609037807
H        -0.78374409171438   -5.22071327098518    5.76732727319474
H         1.36948417710608   -6.09019497170375    4.93972334086206
H         2.69035399483816   -4.75560807226755    3.31270943756804
H         3.05299859088715   -2.35511471227117    5.15844684260697
H         3.31850687069975   -2.70177144055713    7.58340531158219
H         5.04585437650580   -1.44348922199171    8.82495203932744
H         6.50579669395717    0.14381501883309    7.63043289494883
H         6.24757978700515    0.48262713202771    5.21321578708439
H         6.03070173338001   -2.77524696557873    2.19078601839359
H         8.38243142855561   -2.89015897014647    1.41798006786756
H         9.78741131994604   -0.86061461723021    1.46564876493119
H         8.84879582155251    1.26326435727934    2.29495368889071
H         6.51299167101237    1.36852005539159    3.05455982408540
H         4.83072123697140    2.96779336324708    2.92209368776826
H         4.51412481021983    2.02289659702116    4.37671787789921
H         3.35106963133689    3.21135650154397    3.83667920056143
H         4.32755037780240   -0.36552816225116    0.41689414104110
H         5.33067539990363    1.66412595832533    1.07046410661032
H         3.69510846684879    2.94578796755481   -0.90641197572642
H         4.79278822236898    3.73300077593580    0.21083883296042
H         2.23726919177621    4.44022589901189    0.13515452448085
H         3.14425021311517    4.43962071565306    1.63917260736234
H         1.27017690178678    3.25059447798811    2.39301705865395
H         0.32743752552990    1.31286123318046    1.33669006366093
H         1.68717758789969    2.30914977822688   -1.12955149037085
H         0.56692764887825    0.95965063089784   -0.97835644384716
H         2.20232067789425   -0.61221996033208   -0.57701446494056
H         3.04657884425403    0.46184426931993   -1.68338890293077

