71
CSD_code = RABWAO | q = 0 | S = 0 | Stoichiometry = C32H33ClNOP2Rh | MND = 6
Rh        1.93052920494647    1.83177194460793    1.37760457043868
Cl        2.45921124072196   -0.05648766984844    0.23467745580823
P         5.21230617131963    2.32663749909276   -2.27612324475406
P         3.10918277761596    2.94799572188482   -0.20045553330693
O         5.71607117005629    3.69286939510584   -2.42578480808271
N         4.39787843760179    2.04494646542020   -0.81694668268682
C         0.90676603920249    3.58563196666392    1.96580767693899
C         1.97525825611739    3.38498774793630    2.83787077605150
C         1.81056650033137    2.88212554855175    4.25626324025746
C         1.94906486184596    1.35076233144419    4.35124904850959
C         1.47108206213304    0.62608516796886    3.11590132457817
C         0.29050874182216    0.88120053405537    2.44608989121565
C        -0.74154904632158    1.88425371104864    2.91293139917238
C        -0.53840836762835    3.27558813124159    2.28164443061304
C         4.10106268136175    1.78917314258491   -3.61934001621892
C         3.07018245089157    0.87722677935607   -3.43843886942383
C         2.26669232749339    0.53585286407895   -4.51137208698403
C         2.49541737191181    1.08957449658112   -5.76039489345745
C         3.53272749923911    1.98943069507594   -5.94288681902662
C         4.33493614302239    2.33781633849996   -4.87223085984997
C         6.50796780752902    1.05707547676139   -2.17900821017592
C         6.21206577102175   -0.29678428073547   -2.08479594564459
C         7.24205445278707   -1.21636815259940   -2.01042142595913
C         8.56088245999094   -0.78909884104905   -2.03453930833202
C         8.85499729187206    0.56087852881228   -2.13398619665701
C         7.82694459758082    1.48395903976672   -2.20771892210245
C         3.93737638299340    4.53389904679577    0.10805324120315
C         5.23761043661389    4.52920099731489    0.59995978038051
C         5.87147111421191    5.72101967382490    0.89621671987070
C         5.20502834282814    6.92348841152813    0.72417725232732
C         3.90102905660038    6.93186665403004    0.25718230028873
C         3.26530392104378    5.74156345296347   -0.04544832573680
C         2.03951000799047    3.31794817767217   -1.63353277006464
C         0.79592552833273    2.69730833163845   -1.67710449556535
C        -0.02365533494773    2.85747216384666   -2.77892633178683
C         0.39846689705639    3.64060412429403   -3.84089496952857
C         1.63207778718167    4.27006239787015   -3.79537063879788
C         2.45610813124209    4.11245869407417   -2.69547062775341
H         1.02105381852764    4.36008930412413    1.20561647785477
H         4.23713756427394    1.05378838613277   -0.62523785618042
H         2.86910242502050    3.98751161655836    2.67392923547505
H         2.57582895993168    3.34059033598908    4.88549359019413
H         0.84201694356534    3.20495529483488    4.64058549137055
H         3.00285659420183    1.10027405194930    4.49858961061333
H         1.40117770861460    0.97490462574955    5.22253979185113
H         1.94013244293555   -0.34761941281116    2.97140156098661
H        -0.09073442757767    0.10376473449410    1.78208865048064
H        -1.73532693796227    1.52005614848840    2.64455657413896
H        -0.70534090913076    1.94977180250638    4.00106355369171
H        -0.93851623152451    4.05056981791474    2.94484120779892
H        -1.10449363142754    3.32875870056420    1.34764522262028
H         2.87187915205783    0.45214417195586   -2.46432106490132
H         1.45648256108233   -0.16406546493436   -4.36974147180381
H         1.86182630448519    0.82083260034590   -6.59311115876994
H         3.71159684798288    2.42060923761073   -6.91718255790176
H         5.13985336324062    3.05018692844152   -4.98374464194662
H         5.18410295265462   -0.62919047783665   -2.07149291572955
H         7.01724328276985   -2.27004391622136   -1.93369333012469
H         9.36113763785792   -1.51252127841246   -1.97673454738704
H         9.88324083014913    0.89147910269199   -2.15374674732098
H         8.02353083228835    2.54349150336551   -2.28607791616627
H         5.75016820936047    3.58660224293029    0.73022498156775
H         6.88805587280989    5.71409778853721    1.26139847232154
H         5.70157488593957    7.85496441673306    0.95364875311496
H         3.37933979873708    7.86880513007921    0.12468958854736
H         2.25067707751648    5.74947922746606   -0.42168552648383
H         0.48708851618849    2.07704687729802   -0.83529861959670
H        -0.98725668389134    2.37035690374421   -2.81433494117458
H        -0.23585151706392    3.76176043455324   -4.70681476167521
H         1.95699143244849    4.88130919089611   -4.62442016365431
H         3.41877314843941    4.60044326593041   -2.65761166761650

