59
CSD_code = RABYIF | q = 0 | S = 0 | Stoichiometry = C21H24BIrN6O6 | MND = 7
Ir       -1.62550845796896    1.80323645563588   11.12386689024088
O        -1.96683038121522    1.72957227094529    7.36452548283995
O        -3.30418175762790    0.01601754402797    7.94239105848240
O        -1.62936801339135    5.58505515293888   10.51126564471933
O        -2.54524375140983    5.41333302692771   12.55679643011361
O        -5.14985473715270    5.38101163179877   11.31183819771360
O        -6.08159470813963    4.10308853915138   12.90126298639023
N        -0.48768675965383    2.17898493553141   12.78370195170425
N         0.77507313616700    1.75846085967351   12.87740887586156
N        -0.77164081649313   -0.05054369560552   11.10177111008419
N         0.51644325936876   -0.22325046906550   11.41181332305216
N         0.24114209876790    2.35260416543710    9.99774803448080
N         1.39444714141145    1.87911973671505   10.49384245490339
C        -0.76152813893936    2.90703827716225   13.86098079315149
H        -1.72333387584563    3.36048721136107   13.99868787728372
C         0.36307734286734    2.95823066100837   14.67988312622601
H         0.46520231603063    3.46363252366236   15.61749570308173
C         1.31591100509805    2.21493739690499   14.01259210095574
H         2.32924145711318    1.98943976614172   14.27490361500084
C        -1.26688983774267   -1.22910870457373   10.73593031713741
H        -2.28706491677321   -1.33550784753761   10.42531165748569
C        -0.26937365517860   -2.19572519857956   10.81706625238012
H        -0.35050090293737   -3.23856816522561   10.59178331901334
C         0.84740333978012   -1.50861349268336   11.24862864596986
H         1.84159910620610   -1.85481559519398   11.44397690088050
C         0.53544395710015    3.05381385294234    8.91517280307139
H        -0.21779509832768    3.52274404297053    8.31758766178915
C         1.91297670978200    3.04260152544975    8.69724021236524
H         2.45040328710665    3.51947260314866    7.90444817233362
C         2.41880383556554    2.28229142143446    9.72728152058598
H         3.42638876948606    2.00428673504365    9.96172260517290
C        -3.15737117189061    1.10907352042611   12.36528807577805
H        -3.58375404904440    0.15630973412774   12.03486241557578
H        -2.78430385634571    0.92386809784748   13.38047123358967
C        -4.24306628226174    2.11245149300039   12.45883393343589
H        -5.14291130807644    1.85726219652197   13.00451239108724
C        -4.10865948562627    3.31929908793567   11.90045379848016
C        -2.91745136250447    3.64541236000525   11.07185879700335
C        -2.71944698005703    3.07708862227246    9.79500766334355
H        -2.12762607983747    3.64080277421114    9.08167929936781
C        -3.09990433391851    1.75230655146924    9.47475014856142
H        -4.01791202698985    1.32807918540762    9.86906278317804
C        -2.71539755717585    1.21752890056640    8.16455694704121
C        -2.96944814381582   -0.61408441830793    6.71820486986011
H        -3.21109721729471    0.03694230997157    5.87530657741664
H        -3.55561502719491   -1.52865582908967    6.67417609392800
H        -1.90131131285879   -0.84182974119315    6.68810266028858
C        -2.30906465474771    4.97622824279085   11.30191191590806
C        -2.02949964647364    6.69670617183701   12.86410147421620
H        -0.95634117235334    6.73280896989179   12.66280266445577
H        -2.22791671393936    6.86140164229720   13.92047811563820
H        -2.52804152927690    7.45605490702610   12.25833632747029
C        -5.13404886075572    4.37985717935060   11.98568737721995
C        -7.11142239121765    5.07132229389478   13.02443126988392
H        -6.69194784031713    6.03712854207318   13.31434085959310
H        -7.78659422659408    4.70187647187656   13.79217312119025
H        -7.63760120672378    5.19093374222307   12.07477469674563
B         1.42676745509788    0.97822338705767   11.72737999955623
H         2.52222602913403    0.63337643695718   11.99922876571762

