73
CSD_code = RABYEB | q = 0 | S = 0 | Stoichiometry = C31H30BIrN6O4 | MND = 7
Ir        7.67649994558824    1.52918977149543    8.78322319743950
O        10.72608277431736   -0.32108905822225    9.37601079682661
O        10.74120239481333    0.70260373650935   11.37770350258399
O        12.28548544359411    2.90886824190679   10.24413554715159
O        10.98910500136021    4.14293244828516   11.59944125281961
N         6.75098438440962    1.74483504912096   10.58852033403955
N         5.60252419357807    1.10796019732747   10.84245061061375
N         7.27974038386848   -0.61731254655556    9.18952530711101
N         6.05304927539090   -0.95714488294711    9.59928906636072
N         5.69085442328905    1.46986795122602    7.88640978252974
N         4.71242038143205    0.84340571320910    8.54287322343062
C         7.06639188109425    2.46274591519394   11.66354392152403
H         7.95389185977022    3.06200564537921   11.69982235052224
C         6.09143648960849    2.28652261828364   12.64012406421928
H         6.05694079782003    2.72902991921447   13.61365393431272
C         5.18285848054352    1.41543717140500   12.07455708936432
H         4.27723577189710    1.00236762724330   12.46976472374059
C         7.99927334437355   -1.72565410578277    9.11257113915295
H         9.02998278376567   -1.69982655406606    8.82229474442126
C         7.22036378640169   -2.82130162480731    9.48253753269560
H         7.51528659277893   -3.84932465286703    9.52265186782124
C         5.98777288585108   -2.28290763191738    9.78410916645076
H         5.08319671895123   -2.75173515463935   10.11476656487186
C         5.16072071076349    2.00565286304030    6.79618855692719
H         5.74770300312228    2.57778359818899    6.10618736339314
C         3.79956702869283    1.71666885485967    6.73910544292704
H         3.10055961643600    2.00905026552578    5.98356591709407
C         3.55876454740187    0.97311266010655    7.87509450671163
H         2.65287780670615    0.53567772533731    8.24234429799807
C        10.38278872786895    0.59990023871727   10.08295113707387
C         9.51720404533308    1.71419376835372    9.67426342936100
C         9.91444073062618    2.98808637924446    9.88711023163549
C         8.99767690975306    4.03270657298150    9.43968206316161
C         7.86692909365811    3.58509368106386    8.85451604057378
C        11.65639075846465   -0.27140488546650   11.85258781726095
H        12.65833513500752   -0.04824446799657   11.47904774181346
H        11.36238545851200   -1.26640257523943   11.51113322815159
H        11.63390689708445   -0.21421252225770   12.93848185341319
C        11.19717097490603    3.31969926088119   10.55943934356721
C        12.14623185017655    4.54217061587082   12.31404030951953
H        12.82375036198285    5.09353449479596   11.65839046406594
H        12.66987089097455    3.66816790786444   12.70726633965757
H        11.79983796325246    5.17920507711752   13.12364038475108
C         9.33187309224724    5.45599935442407    9.61144122220866
C        10.57424566070103    5.93591962523715    9.20474027933956
H        11.28909741140913    5.25604342955045    8.76216772151277
C        10.89185164196678    7.27302710879104    9.35208652057151
H        11.85859511199764    7.63441597688608    9.03126372173984
C         9.97400489118720    8.14961722398067    9.90664030360451
H        10.22397921807782    9.19416661140885   10.02252959261659
C         8.73593179035045    7.68069711504785   10.31233978212037
H         8.01744196654627    8.36021248842327   10.74785917980287
C         8.41565945011129    6.34390001948364   10.16607700461024
H         7.45318190772842    5.97685947700580   10.49031496836819
C         6.86008654507517    4.46788005771151    8.27704730804148
C         7.19888612702211    5.32961059193309    7.23126274448931
H         8.22021123525727    5.35140810190908    6.88056610584004
C         6.24657215170294    6.14580477452009    6.65269586303050
H         6.52560004710252    6.80621371680095    5.84419543558329
C         4.93718198905867    6.12067880649965    7.10448604098410
H         4.19290736459606    6.75744609428072    6.64949735757314
C         4.58909992806470    5.27750956138137    8.14693588592756
H         3.57099576289949    5.25874854348954    8.50914420100417
C         5.53802679768679    4.45736118090374    8.72505546973386
H         5.26065579888702    3.81114465704119    9.54546227766903
C         8.67713966793459    2.03303720579768    6.85342054684097
H         8.01026723322346    2.58292095833123    6.20091885956284
H         9.63467653959777    2.50941172925649    7.02633420390008
C         8.56585965258161    0.66320125294644    6.97814768644848
H         9.43339143413199    0.08302059560552    7.26662505099900
H         7.80345930681525    0.12530041467124    6.42539924446640
B         4.98173178968629    0.10285173771521    9.85495954673302
H         3.99129598113289   -0.37072371801795   10.29316968562767

