53
CSD_code = RABZAR | q = 0 | S = 0 | Stoichiometry = C20H24N6NiS2 | MND = 6
Ni        0.23807636267063    0.75372438111882    2.78592162147319
N        -0.96841302416569   -0.28279641285075    1.93415216200345
C        -2.09313543838926   -0.59367057689790    1.76718760943954
S        -3.55200449500231   -1.13239349062024    1.47134405435082
N         1.56982752570398    1.85930467456113    3.29599522946193
C         2.50141920664312    2.06594546893019    3.98788625181003
S         3.74485991452932    2.48416785429626    4.87364172576533
N        -0.73461193150032    2.53464030907361    1.89197252598113
N        -1.14191925129342    1.40398447352950    4.64158804556059
N         0.22944239620299   -0.66209803258538    4.72739424322760
N         1.76892332408445   -0.71947777124917    2.15238961683337
C        -2.14543377667507    2.55398514361420    1.99547441041097
C        -2.92904801582480    2.47220673843286    0.85077264844980
C        -4.30826731623037    2.45999796154816    0.94085998300920
C        -4.91885227227597    2.53932918957081    2.17945296793218
C        -4.14228005266059    2.61095136498844    3.32278167253452
C        -2.75746614618952    2.61706715899806    3.25220221930581
C        -1.92004047040875    2.63615685600387    4.50257785484694
C        -2.02198265309450    0.26295190749690    4.88737870870403
C        -1.17306304157445   -1.01964015305729    4.93090680332338
C        -0.23253480216617    1.48980130768196    5.78264899845300
C         0.61074574284238    0.20428247616966    5.84125401942595
C         1.07294682407974   -1.85804287733503    4.69169812562855
C         2.49543375267892   -1.51303859263037    4.34127086641933
C         3.51999501446707   -1.69987929667501    5.25677609912652
C         4.82162102260434   -1.33354648277629    4.96186323648158
C         5.11065150827571   -0.75922387951297    3.73718330210926
C         4.10339111371323   -0.57204349583371    2.80936724642961
C         2.79665657612884   -0.94667485189744    3.09773327415716
H        -0.43331483371505    2.62884957364014    0.92463351460171
H        -0.29190063550623    3.24817990819307    2.46977851018481
H         2.15001463642783   -0.43877923772328    1.25162907268156
H         1.15770495732985   -1.52737097708049    2.03970282064688
H        -2.44957807471650    2.39689932067996   -0.11521938255868
H        -4.90374903210431    2.38343526799026    0.04425423081888
H        -5.99480782447040    2.52819077200969    2.25782686758915
H        -4.61940770164604    2.65445765796249    4.29153347527741
H        -2.57342328109134    2.77689493503616    5.37967351138034
H        -1.21589476154067    3.47542651833594    4.47597428527696
H        -2.56063109622782    0.40153230927852    5.83947272851216
H        -2.75845711281623    0.20547930650018    4.08571544513573
H        -1.48594537140422   -1.70471004015210    4.14196854370657
H        -1.29729418892471   -1.53122610114082    5.89970334133468
H         0.41484059874738    2.35896227489041    5.65986013779936
H        -0.80607836616881    1.61735189416182    6.71564778161262
H         0.44923333847647   -0.31981606088424    6.79786475752516
H         1.67171573042460    0.44046079417565    5.75820585976079
H         1.04946212237916   -2.37218511089811    5.66694809787416
H         0.65249636948889   -2.54240339870420    3.94622046563137
H         3.29131099467496   -2.13175846804737    6.22073082480650
H         5.60206649307729   -1.48014651704310    5.69217485920825
H         6.11831196209735   -0.45125041092737    3.50452647905002
H         4.32428748003470   -0.11084556234380    1.85689824948938

