65
CSD_code = RACGOR | q = 1 | S = 0 | Stoichiometry = C21H41P2Ru(1+) | MND = 9
Ru        0.86191863460921    2.99641501947058    2.48226806379271
P         3.09633533470779    2.34076211372911    2.02241680080117
P         1.37905573289032    2.21325862134759    4.64793632761988
C        -0.07642733653020    0.99698869900867    2.30981150271306
C         0.07429358401641    1.53416962115727    1.03449798835018
C         1.04271734189576    5.11335006106500    1.64623585704719
C         0.71394770581970    5.17144085287366    3.02538492687900
C        -0.58927937097585    4.60245399103147    3.18630351617966
C        -1.01948834027674    4.15020138615174    1.93208530804699
C         0.00062409413431    4.44673850205655    0.97364716722270
C         3.84446828290656    1.61714509100431    3.56212526897098
C         2.76759838637322    1.01024180910562    4.45293449602692
C         4.27614190965803    3.74468095851915    1.63455065432766
C         4.28483865616569    4.77726902235260    2.76170383033893
C         5.71543946178445    3.32148668409133    1.34037409858948
C         3.64522093791712    1.07763060001607    0.75457286616825
C         3.10469803501490   -0.32878265176899    1.00309236597284
C         3.37303490444057    1.55242873549376   -0.67051684890753
C         0.12978845610085    1.17672805232724    5.57312407331752
C        -1.23506898320021    1.85927888403067    5.63364485971595
C         0.55686509765523    0.69637670118893    6.95672432634962
C         2.11643110052763    3.49963033325465    5.80292565999427
C         3.13932680623531    2.99203750567434    6.81824249680275
C         1.02860343563976    4.30367227627070    6.51311423585225
H         0.53586875576425    0.14312305027998    2.58907064712596
H        -1.06574377086502    1.00147468313456    2.75910076815461
H        -0.79895673287656    1.93410558116033    0.52889903974914
H         0.80818057160330    1.11706012777344    0.35874287890101
H         1.89038398928631    5.58965265610789    1.17628961777544
H         1.21465782156957    5.78100114852421    3.76576790310661
H        -1.19963413110336    4.65852582624062    4.07556296496151
H        -2.00614524455707    3.76903281546727    1.70483491259960
H        -0.10013273033091    4.36347489478714   -0.09921811707394
H         4.59739886786704    0.87092201357846    3.29544808486111
H         4.34219185622384    2.43124425123032    4.09293642412744
H         3.17595399349794    0.72798001729600    5.42511556401888
H         2.34565854410658    0.11438218095963    3.98744913437891
H         3.85325262691669    4.21056693629573    0.73564381075211
H         4.94685731779517    4.46590953236496    3.56671123189417
H         4.65050950855340    5.73199701534522    2.38993483259434
H         3.28710802201275    4.92710709046059    3.16698811007169
H         6.11374028869276    2.69263468410362    2.13354185323036
H         5.81510459591767    2.80370627011264    0.39144418312581
H         6.33296413852932    4.21636782860543    1.28603842854657
H         4.73100801790423    1.02632410601419    0.90206710617440
H         2.03799800928157   -0.40660269632783    0.82138360034853
H         3.60390052917018   -1.02108274885978    0.32741149068230
H         3.30892231717375   -0.65694546960174    2.01978047948220
H         3.91316942974822    2.47010501367733   -0.89108454592376
H         3.69955345386686    0.79278614646476   -1.37817659306953
H         2.31596247193154    1.73938436188881   -0.84231555056742
H         0.03715627103197    0.29297212525024    4.92741085714715
H        -1.24891227807837    2.65527497845056    6.37244446806493
H        -1.50405963618614    2.27770431302796    4.66478362116271
H        -1.99653156156130    1.13390363894244    5.91264893267426
H        -0.17831937110548   -0.02103796819197    7.31736022218114
H         1.52139193181379    0.19605921310784    6.93289348327056
H         0.59262149599769    1.51283472277954    7.67186294058542
H         2.64237102969669    4.17499468916752    5.11488940125949
H         2.72269095519420    2.24023124151433    7.47988148625241
H         4.02860847392680    2.58839550486099    6.34227726398457
H         3.45408021087878    3.83402653559135    7.43280965253701
H         1.45624384236782    5.21400808387075    6.92961349435805
H         0.23154587370899    4.58615452834600    5.83067603626507
H         0.59969637712426    3.73673820674691    7.33458003805575

