55
CSD_code = RACGUZ | q = 1 | S = 0 | Stoichiometry = C24H18AgN6O4S2(1+) | MND = 4
Ag        4.05410551575762    3.64616513459946    3.56752566611240
S         1.99780085637400    4.56622687604759    5.57119642127160
S         6.10358957341268    4.57388356289141    1.56947382927326
C         1.59657103330740    2.12418021242663    6.73493888995302
H         1.02703877677914    2.60367568674594    7.50375341284679
C         1.90856865294830    0.81116899059582    6.50099652929915
H         1.64007764292756   -0.03994930756658    7.09098306890384
C         2.65592553133766    0.83283576058886    5.31050778121410
H         3.08707018461355    0.01241635857191    4.77186332800741
C         6.23072205547361    3.41961814786488    5.75878186427482
H         6.44498918314574    2.53002250537710    5.17848740123042
C         7.24736767565518    4.07556445344300    6.46722108723248
H         8.26141447950187    3.71510663646403    6.40496732460559
C         6.92344582972786    5.15800320843341    7.24115079410821
H         7.67045823965194    5.68437928473992    7.81657454991411
C         5.57982504581356    5.58507755610349    7.30033353053869
C         5.15716942657588    6.66806827509406    8.09849481738203
H         5.89613270506509    7.20050807979624    8.67858789775924
C         3.83880191368429    7.03417014742124    8.14194128702243
H         3.51512377898558    7.85581193033537    8.76068041194917
C         2.89469420845202    6.34111437898488    7.37093504352826
H         1.85205885123616    6.61624351462870    7.39215747684306
C         3.28362985192323    5.29583435795402    6.57594637363292
C         4.62682842052011    4.87227573013386    6.51466730946468
C         6.46142464921857    2.14677741480471    0.35811160479256
H         7.02235260407954    2.63245166171152   -0.41315526970623
C         6.14298318206239    0.83299814068866    0.57888544556447
H         6.39554330467265   -0.01181362879564   -0.02698647688867
C         5.41483634849097    0.84365760979756    1.78131315391139
H         4.98634268492890    0.01905622211242    2.31567613377091
C         1.85913531042905    3.46467169629261    1.39050842900940
H         1.64343488545837    2.55925753353264    1.94521501098451
C         0.84053215669652    4.15045279064232    0.71396442904013
H        -0.17589719793823    3.79683096212970    0.77668725916101
C         1.16535664894327    5.25312934307910   -0.03043942389568
H         0.41670307770650    5.80300013578153   -0.58122827862515
C         2.51192210853998    5.67046588536645   -0.09172268517090
C         2.93536366061682    6.77348916185595   -0.86149407263615
H         2.19485877392519    7.32945240505331   -1.41704756390829
C         4.25634391625692    7.12964756881817   -0.90849585714522
H         4.58047781119003    7.96680064826040   -1.50584811626242
C         5.20257878498957    6.40610739775562   -0.16874979284848
H         6.24721889380440    6.67327029135020   -0.19294632880235
C         4.81311556786682    5.34059998285329    0.59869412702773
C         3.46714261638029    4.92635116433528    0.66149811563403
N         2.78527845628142    2.06215975623782    4.85825139202954
N         2.13735081953528    2.85543308739794    5.72793794498609
N         4.97076236306267    3.80041668155594    5.76700936810637
N         5.30216644608574    2.06751839407118    2.25248761464676
N         5.94210241565058    2.86793562782172    1.38338401199749
N         3.12229760439551    3.83482669566902    1.37992485327071
O         2.17427080376831    4.88390363580249    4.18288123014217
O         0.73732661639522    4.87339514262315    6.15770152463533
O         5.95005478202834    4.86586621765937    2.96623044596312
O         7.35931047146362    4.87828889266826    0.97148567483521

