60
CSD_code = RACHUB | q = 0 | S = 0 | Stoichiometry = C28H22BN7NiS | MND = 4
Ni        3.72565140849619    1.25090261748426   10.18553933251180
B         4.09434110930943   -1.78253120568794    9.79188820185183
H         4.15143322041436   -2.95076449872709    9.63556242838719
N         4.68004327931925   -1.34328443418452   11.14603910277684
N         4.50448773458294   -0.09338737442146   11.58636980015474
N         2.64143536246205   -1.26182436502869    9.77158442314330
N         2.39839313018765    0.03140402824873    9.93629387548331
N         4.83691487473135   -1.00685172283532    8.68953164214411
N         4.69798649944707    0.31846533009792    8.58185996667405
N         4.94403308857680    2.52077277253385   10.43719414492258
S         7.53850861312323    3.39558481873094   10.71070103886668
C         5.41752118229143   -2.02742669720588   12.03204396434255
H         5.67017111088959   -3.05542350556014   11.86666009130295
C         5.73543012626553   -1.18892147751806   13.07798345299366
H         6.29988968438590   -1.42514032160443   13.95609932791523
C         5.13022106604885    0.03546259403183   12.75593006716690
C         6.15824865440221    1.68357284922365   14.30007099618031
H         7.01214520352816    1.03230232665236   14.41165939970510
C         6.12946484082836    2.90871099199889   14.93959025933302
H         6.95886153322132    3.20759162693695   15.56359523555415
C         5.04855358408267    3.75818908791059   14.77253324425177
H         5.03418831739167    4.71805745221261   15.26748132942897
C         3.98700237055374    3.37649925352162   13.96799300200390
H         3.14064529802325    4.03596924007841   13.84025721334203
C         4.00929205366102    2.15233487961345   13.32945441102912
H         3.16764935743707    1.83947171895647   12.71605570893391
C         5.10042345859906    1.29697908649181   13.48281204942803
C         1.48310038870315   -1.91448557076175    9.61297639885216
H         1.45755488823609   -2.97484920128891    9.46430965657170
C         0.45271131070368   -1.00096451116172    9.67934384751520
H        -0.59490013306293   -1.20027948827884    9.58990995765533
C         1.07754203753333    0.23886226221861    9.88828397273516
C        -0.84949437123463    1.80980461451857   10.01227272852767
H        -1.52957597283553    0.98511769459906    9.86544038623934
C        -1.34252137112339    3.09167140090797   10.16747742075191
H        -2.40881313579034    3.26060246866201   10.14039215449831
C        -0.47889534094308    4.15791124783243   10.35750222896352
H        -0.86880754442435    5.15713094725138   10.47838646746867
C         0.89010799656681    3.93866685104282   10.39242245737256
H         1.57084200580118    4.76355167817165   10.54019688912342
C         1.38269296384974    2.65947429313556   10.23748300940270
H         2.48990721530924    2.51279288035939   10.26815671483043
C         0.52453874298436    1.57399362834503   10.04508819932997
C         5.69309580327615   -1.44206471881502    7.75438862090681
H         5.93941081187814   -2.48130073345512    7.66908155618780
C         6.12828477537497   -0.35998557943399    7.02118969544717
H         6.80450043919884   -0.36246132191708    6.19160354754897
C         5.46660456587694    0.74428165426327    7.57975420118384
C         6.65964365264736    2.72303286368863    6.67578020462070
H         7.53007764340091    2.10781798425210    6.50373775834777
C         6.69531908366841    4.07452546623814    6.38783318354150
H         7.59318931724750    4.51167946742742    5.97633876688754
C         5.59002053923455    4.87078580127280    6.63699185735545
H         5.62527689588333    5.92787062299411    6.41830606322446
C         4.44008035254742    4.31045573808333    7.16940373545703
H         3.57524613830850    4.92941710844186    7.36034231259123
C         4.39801205309663    2.96022916676679    7.45550063257855
H         3.48980301548568    2.51230474984530    7.85145875167506
C         5.51169284354176    2.15441103836013    7.21915974742213
C         6.08241622680087    2.81788442448869   10.54530316535604

