61
CSD_code = RACHOV | q = 0 | S = 0 | Stoichiometry = C27H22BN7NiO3 | MND = 5
Ni        2.69119256668830   10.87471540069195    0.47962830994680
B         4.31771685353336    9.50088266810228    2.71930400977442
H         5.03585042892510    8.93040150265552    3.46137039365742
N         3.21328516395689   10.27354949097623    3.44061409176489
N         2.46121502039613   11.14181911162368    2.74931925102459
N         3.61855411446110    8.53841863068451    1.74219659729534
N         2.92467056834197    9.00354336633973    0.70130865349849
N         5.07400922806394   10.52013705194133    1.84782442136681
N         4.50791622790209   11.10210770429262    0.78409346174150
N         0.99244134869969   12.12716338465381   -0.19754826031877
O         2.15924943476833   12.57090474703627   -0.15676164650929
O         0.88064723993104   10.92193047407855    0.11149710992201
O         0.06085535092185   12.79375957306812   -0.52893575938060
C         1.55954124952366   11.64733983508671    3.58918570604766
C         1.73046283161168   11.07347029081829    4.85989675275925
H         1.16879733348250   11.28283390432289    5.74685187996663
C         2.79536208784657   10.21460589218013    4.71462726432598
H         3.27549343300365    9.57437480332170    5.42704600457340
C         1.04591875632795   13.73085175987369    2.37222411206837
H         2.08479544321096   13.77774512720331    2.07550966115795
C         0.15611149261661   14.70604834807799    1.96273644224994
H         0.49710694207313   15.51148306355920    1.32968211298350
C        -1.16999304947131   14.64494583362465    2.35653561163060
H        -1.86620470641820   15.40297206034112    2.02980621926727
C        -1.60316530086628   13.60916959749153    3.16775137430041
H        -2.63770245740751   13.56080631503696    3.47568310141920
C        -0.71787594816726   12.63058388237753    3.57941888368030
H        -1.05639737841325   11.81327400622951    4.19963973188269
C         0.61290729866707   12.67835500095054    3.17569193355109
C         2.35743321802250    7.96560943994471    0.07277127529777
C         2.70789653057897    6.79186019157932    0.75322126137475
H         2.43402948587292    5.78911567892769    0.49903174998817
C         3.50581429703378    7.20759740255922    1.79696845595335
H         3.99415877975747    6.64021634317549    2.56295751120819
C         1.81877402549445    9.15220608488240   -2.02551478969537
H         2.63843219769808    9.83684774039962   -1.81277959210829
C         1.06029444285471    9.30837966667800   -3.16884451273404
H         1.26323703685040   10.12633654748806   -3.84473147623522
C         0.04006130745013    8.41374012712284   -3.44935611329517
H        -0.55491653209968    8.53456955655681   -4.34224776253976
C        -0.21513503550808    7.36502964189671   -2.58136240139052
H        -1.01087200230825    6.66767604700358   -2.79858475816989
C         0.53751311697027    7.21048577463501   -1.43199031457493
H         0.32116537345271    6.40475315042080   -0.74698138345871
C         1.56022665190922    8.10884271154944   -1.13819204289778
C         5.36168250857205   12.00917082164285    0.29561487026516
C         6.51739548556355   12.00412276225652    1.08438020720267
H         7.39407005109495   12.60260169758386    0.94776689477868
C         6.28706946503001   11.04463877538689    2.04712604100533
H         6.91088659790809   10.70990608379175    2.85092290844706
C         5.35843674186575   14.15526818946765   -0.94976987704438
H         5.80515420550689   14.63785336176326   -0.09326177164926
C         5.04812250306938   14.88622105828810   -2.08162648424922
H         5.26427329252252   15.94405519776800   -2.11302650533310
C         4.45259488503862   14.27005960521827   -3.16973615629616
H         4.20486756567444   14.84664645373347   -4.04852576802381
C         4.17811090493286   12.91292894311686   -3.13106086066844
H         3.72482037399102   12.42865357073547   -3.98385025258973
C         4.48885220690797   12.17818451651857   -2.00308651317379
H         4.31685529984195   11.10898741326297   -1.97521324823598
C         5.06953344424033   12.79574261800275   -0.89821601680341

