58
CSD_code = RACJAJ | q = 0 | S = 0 | Stoichiometry = C27H22BIN6Ni | MND = 4
Ni       11.27368321203964    3.08804332319632   10.52433294811518
B        11.30694677383980    6.12862815694369   10.29251621924489
H        11.27496338721591    7.29860018966985   10.13906581882790
I        12.26011488177818    1.59955152724480   12.16529024715048
N        10.53540716179756    5.37380303786683    9.18324747927724
N        10.46830507531582    4.04952518460693    9.20765983687114
N        10.63570411984287    5.69749211428778   11.60634352307378
N        10.30032456131653    4.41799607205890   11.80827087708793
N        12.73854307321869    5.57371167207955   10.22888264040362
N        12.94887172974502    4.26127063617110   10.07542472849588
C         9.86498235583670    5.83151681611984    8.11935421456796
H         9.79735461339797    6.88076138597517    7.91518905925422
C         9.34601251166981    4.75465312536888    7.43329209800200
H         8.75944377487470    4.77864240497643    6.53861832929055
C         9.75262195747815    3.62440213457607    8.16063357780294
C         8.75141620855510    1.76227137632370    6.84510068796121
H         8.33386648120860    2.47509717544809    6.15097378679982
C         8.53601992829269    0.40970767389880    6.65909995112225
H         7.94913846051210    0.07484828923914    5.81659444250385
C         9.06543514415584   -0.51647607559725    7.54318476172507
H         8.89243009925116   -1.57110048304718    7.39201938152812
C         9.81921643963229   -0.08546460534707    8.62423734558524
H        10.23776689073680   -0.79668294932996    9.32053516502941
C        10.03296899291293    1.26417411309882    8.80724438360855
H        10.64109520507776    1.59304236280809    9.67707387712669
C         9.50656166968530    2.21123051321151    7.92803508474038
C        10.17451631022992    6.44130040602484   12.62201188945975
H        10.33818397831472    7.49974457973832   12.65060837411238
C         9.52297423304632    5.61491751191686   13.51005098129437
H         9.02802992128074    5.89173666079407   14.41759332020457
C         9.61508607178264    4.33184817471754   12.94807506382312
C         8.71228727827671    2.09611829232595   12.45593814713142
H         8.86162165304590    2.30167098170162   11.39829014844807
C         8.18514056915033    0.88502330175250   12.85709003259521
H         7.93883923728639    0.13385494835164   12.12062632805940
C         7.97527061658265    0.63492585231435   14.20327700905437
H         7.56702592850776   -0.31356766455606   14.51894586640993
C         8.29299917867863    1.60069882372322   15.14385110292752
H         8.13319841465410    1.40359196454273   16.19363881893199
C         8.82394075850979    2.81342350933242   14.74692359137451
H         9.09137381265796    3.55683404063694   15.48273059412408
C         9.04382996447721    3.07067791096047   13.39719882909929
C        13.91212332782278    6.21966779232201   10.17326779280176
H        13.96186205319702    7.28512295578987   10.27456136593412
C        14.91319845178841    5.29390953216911    9.98128560839157
H        15.96236438385064    5.47771509470142    9.87767125800191
C        14.25539931123601    4.05573154301597    9.91224974526427
C        13.97820947915023    1.78403038277163    9.00900803209430
H        12.97284497839399    2.06231386857666    8.70120094584063
C        14.45098316136283    0.51149910633826    8.75861918341944
H        13.81455123572006   -0.21438251429144    8.27350853901121
C        15.73982873420072    0.16766701456189    9.13218156193820
H        16.10963602622833   -0.82864230871939    8.94099200151051
C        16.55201900362355    1.10127182806998    9.75431740503006
H        17.55517718238116    0.83109765533391   10.04954877746311
C        16.08180457510407    2.37559107979564   10.00960101103252
H        16.70818151517430    3.09565199187778   10.51437546663212
C        14.78640394505002    2.72751051164457    9.64324074314094

