72
CSD_code = RACKEN | q = 1 | S = 0 | Stoichiometry = C36H27N4O3RuS(1+) | MND = 6
C         3.66777896444712   15.28435273239206    1.48963632318450
H         3.27849370752835   16.28249715897476    1.64885804125184
C         3.31213029857280   14.55221033804919    0.37482048626438
H         2.64073408983849   14.97469053611870   -0.35443924869777
C         3.84184763913031   13.27729209469630    0.20887473090951
H         3.60650664203195   12.69038873927016   -0.66403100424207
C         4.66276003720300   12.77026110642053    1.19793074777047
H         5.07041617823097   11.77697697909341    1.11037174186171
C         4.96665244201166   13.55330782563817    2.30970198666082
C         5.70934439850472   13.08378492825962    3.47594006782987
C         6.17935581708976   11.78609891469275    3.67211469731860
H         6.09673741376605   11.05118735495230    2.88881766931620
C         6.75168315745553   11.45228908102969    4.88661892867357
H         7.12362110674736   10.45450482913159    5.05711678593071
C         6.83043069444253   12.41705765751823    5.88459464957368
H         7.25338935842622   12.18684332884615    6.84846662044131
C         6.36513748720883   13.69105527774678    5.61562752229007
H         6.42432547976276   14.49064360270216    6.34382304733414
C         3.22575673016135   15.28543177668800    5.97002391587359
C         3.01420680249228   13.96272055656610    5.53079716924494
H         3.27354990096555   13.70821590356500    4.51179544049195
C         2.44182049842883   13.03787794666374    6.36248255636845
H         2.27564812937253   12.02968281286825    6.01514992309985
C         2.05176617197037   13.39096622042037    7.66306536324511
H         1.61250827211527   12.64474395773892    8.30632504338377
C         2.19988770428294   14.67916235151916    8.10017776783369
H         1.86952638907085   14.97037497138548    9.08551458721104
C         2.77045326943175   15.65910946831110    7.26485358864661
C         2.91450925167070   17.00902146810915    7.65051439210933
H         2.62098789867754   17.31189314326781    8.64367374994902
C         3.40641655100571   17.91620370983112    6.75522648146284
H         3.50947896757283   18.95217154327580    7.02823755161734
C         3.85416579251051   17.47689444393254    5.49342520077740
C         4.36149082802434   18.37768324348282    4.45814334415424
C         4.28225655880887   19.78153749523015    4.55176426763662
H         3.88459782753656   20.23939026207921    5.44061232007303
C         4.74056077250808   20.55035383253846    3.52085881983997
H         4.72396646164734   21.62762558855690    3.58097400160501
C         5.22646693344680   19.92936575111547    2.35168085107781
C         5.67155153773049   20.65975941396078    1.23326503260508
H         5.64663056976514   21.73772568642270    1.28054521862967
C         6.11392289316462   20.01479889804915    0.11140933951565
H         6.45071708009892   20.57816117769076   -0.74458018038568
C         6.12467972773082   18.61321975505192    0.06538423091883
H         6.46418222851169   18.11263471388049   -0.82784130492754
C         5.71549548664245   17.87278985046559    1.14156790452231
H         5.74399613654122   16.79397018946964    1.09752602483714
C         5.26530080767836   18.50752661827394    2.31700907458333
C         7.84133565803399   18.39870934609109    4.09703302032720
C         8.33437373622008   19.69945053603210    4.06924961701099
H         8.12890024699581   20.33157357512498    4.92032229324122
C         9.06748297774465   20.15496083288356    2.98859689436268
H         9.44420425571967   21.16615648891496    2.98274529109504
C         9.32355795943575   19.31422152902589    1.91613460865897
H         9.89905334974428   19.66454732333348    1.07346579402913
C         8.83743710240596   18.01839923449081    1.92709378507435
H         9.00620767260834   17.34152285711668    1.10297486988472
C         8.10327972963294   17.57091501484404    3.00979699415020
C         7.04253562100489   17.95894419691618    5.31600848207153
C         8.80551748021198   15.12907919936356    3.94358092377060
H         8.70314159606518   14.04977192196333    3.88898942091675
H         8.72734611933050   15.48368102249968    4.96477057772941
H         9.74212900414778   15.43641478585052    3.49118347163438
N         5.83633273312552   14.01914604479037    4.44282241607414
N         4.50082217072189   14.82429911221558    2.42617295028141
N         3.82663963635163   16.18354719443811    5.14882971547592
N         4.87684608668045   17.76652605428081    3.38645872728598
O         6.62339397529953   16.74365152891947    5.32825661044320
O         6.86392545115485   18.75096581439502    6.22397200978527
O         7.62410839536111   15.37053973482897    1.60994524157209
Ru        5.36498599925039   15.84314974344984    3.87179195316189
S         7.46939995078611   15.89077167229206    2.96357886229284

