60
CSD_code = RACLUF | q = 0 | S = 0 | Stoichiometry = C22H25BIrN7O4 | MND = 6
Ir        3.52487507624961    2.40842365692568   14.82536141977951
O         3.15934534851883    5.80832033348775   16.37083531204043
O         3.84628300151623    5.94447614529492   14.23066489177393
O         7.65149684725387    4.87796879719828   16.98840495073599
O         6.10018600782493    6.24123018166740   16.10961120200350
N         4.28605437410865    2.64703875187482   12.96674670762680
N         3.50834133804353    2.42825106195406   11.90075888034760
N         2.61896802473250    0.63001249596584   14.06865497682693
N         2.05325980135416    0.67234804435460   12.86109079225068
N         1.70617668172701    3.39723646355475   14.03311594207812
N         1.29449366187710    3.03441428733545   12.81751621138500
N         2.65168136055986    2.23545077701874   16.63901647796768
C         5.46330392395591    3.07543560500337   12.52716383880097
H         6.25267542325953    3.32613628604487   13.20525452925516
C         5.45138969360160    3.13317594395159   11.13621547030250
H         6.24646312871168    3.43702219253024   10.48754525988898
C         4.18670590321129    2.71375570029663   10.78222134473480
H         3.73656621406796    2.60233158697475    9.81671480391750
C         2.46875334522056   -0.59908887626406   14.54160448880342
H         2.85167734906806   -0.87129241797463   15.50559694163207
C         1.78179489436563   -1.38077467377634   13.61471060408661
H         1.50744703143372   -2.41165242433187   13.70167734630966
C         1.53903304763076   -0.52684433876022   12.55845837039684
H         1.04047627129636   -0.69871030183617   11.62636256808019
C         0.87690129722672    4.32595970287463   14.48075504240172
H         1.01368205440899    4.77146932888173   15.44703368127624
C        -0.10631203854454    4.58064552611301   13.52403737889622
H        -0.91681408026547    5.27753906268513   13.58665327186872
C         0.20171855731086    3.73315730976312   12.48004388728722
H        -0.28188440646480    3.58784808625575   11.53537817907591
C         4.50547954693924    4.07140663846119   15.45021006027684
C         5.76168546291175    3.92468510615996   15.90235229858808
C         6.34457610123238    2.53672338231872   15.93849581257497
H         6.71518320136014    2.33265960275669   16.94664566413489
H         7.21846269974357    2.50181610323658   15.28318980961091
C         5.28454975722105    1.50259351437998   15.50197944781307
H         5.06631158902150    0.83970402918040   16.34515944957348
H         5.70725795407719    0.86808323169019   14.71857675357990
C         3.79733317837851    5.35951310603886   15.44361820459669
C         3.13502436909919    7.16084878478707   14.08947628334141
H         2.07621603177875    6.95874543337072   13.90528792199436
H         3.57000148870384    7.68142597613553   13.23909704442764
H         3.22855132615240    7.75934356150462   14.99810396745542
C         6.60629080765869    5.02455726759585   16.39454864865349
C         6.84328749304645    7.34714543737177   16.59010041663393
H         6.88381205991644    7.33313131175401   17.68169783230368
H         6.32691871839118    8.23786455811642   16.24079657019584
H         7.86413612657183    7.31683770104247   16.20150265856404
C         1.36986851192363    1.85297016178205   16.70065501081485
H         0.90115918205719    1.55118990731419   15.77526757284238
C         0.63542454824638    1.82930807197405   17.87012941584578
H        -0.39603479027106    1.51393788875187   17.84644642172185
C         1.23814544816274    2.21879394652709   19.05595208928666
H         0.69000783798249    2.22107651036077   19.98526640666591
C         2.56797024426315    2.60410561220052   19.00370514179833
H         3.09136677641905    2.91602395008346   19.89320885909903
C         3.23188265979212    2.59589125247122   17.79142828814851
H         4.26468550726545    2.90194062812705   17.73832116742852
B         2.05151476106836    1.96214998869082   12.02549304881085
H         1.55999226762733    1.78294304075023   10.96468296138976

