65
CSD_code = RACNIV | q = 0 | S = 0 | Stoichiometry = C25H30BN7NiO | MND = 5
Ni        6.18681410590317    3.27387991084529   16.09630499198526
O         5.58785722373226    4.60338172493971   17.57684705597842
N         7.93106018121080    2.87633289148398   15.09917249573463
N         7.79898937346570    2.05364335928753   14.04599437449572
N         5.49570479158953    3.86618409214799   14.49271041238158
N         5.62775321029207    3.04899928294185   13.42933566045875
N         5.27790620408887    1.39647214945348   15.72579370281109
N         5.66708838812361    0.84733792820914   14.56219404762047
N         6.79394719565080    2.78347612157091   17.74356099402258
B         6.39082185366791    1.71356815898139   13.51580383541878
H         6.44557888688480    1.17419981530343   12.47036225494848
C         9.22575769358536    3.04057955259647   15.34560858946696
C         9.95739313747399    2.29741498033736   14.41621717096087
H        11.02310445249088    2.22071627698800   14.34224892902258
C         9.01552562260147    1.68465024229627   13.60768455634747
C         4.82289140399236    4.94885592386742   14.10944260549127
C         4.50718126989796    4.81899024020838   12.75412116442488
H         3.96812431905137    5.52094247275759   12.15076548494361
C         5.03246422223301    3.60402803397303   12.35921009911967
C         4.66669417927094    0.46138244427899   16.44272867926760
C         4.65836621211831   -0.73357525329389   15.71759532195083
H         4.23818588210227   -1.67180364587580   16.01833735329026
C         5.30373547724024   -0.44781219908046   14.52789727251764
C         9.70276869956749    3.90730268771314   16.45447453779664
H        10.06854148220004    3.30012833354361   17.28272227563047
H         8.87370546663525    4.51950227522832   16.80991134478296
H        10.51101909244956    4.55308807348015   16.11725949922237
C         9.23583456465385    0.77480142718735   12.45332504379225
H         8.79967376148712    1.19140127467124   11.54733046189766
H         8.77368629365090   -0.19401552003631   12.63380046727505
H        10.30207187731721    0.63322803424810   12.29917614872551
C         4.49919088301429    6.09367967786712   15.00051867330663
H         4.77983590741771    5.86468649202155   16.02380855306524
H         3.43281071039203    6.30978308113052   14.95935833780887
H         5.03813096583394    6.98301842980243   14.67436417932219
C         4.97940894623993    2.97204054243733   11.01498519908107
H         4.48564007026405    2.00352332251426   11.06530150629881
H         5.98242279784088    2.82104221831656   10.62018349048047
H         4.42673096841571    3.61510044573402   10.33538345336430
C         4.10648724139785    0.74770081741574   17.78980095508877
H         4.03241555056457    1.82525973321137   17.92828759511945
H         4.75474880501630    0.34008856181518   18.56630601452304
H         3.11978914062233    0.30151392569282   17.89666662853561
C         5.58300176024509   -1.35303328597912   13.38238646421980
H         5.13529803755194   -0.96683490891312   12.46860126377864
H         5.17271037757864   -2.33797157302930   13.58800943077871
H         6.65527341929007   -1.44579442170375   13.21850788910793
C         6.19181099304647    3.81119038586789   18.36565281036790
C         6.26210786178627    3.93466306886778   19.78395845978263
H         5.77172104205662    4.77958374771095   20.24275568537108
C         6.92734726279662    3.00129816136736   20.51711169798971
C         8.23368273353151    0.87341833737822   20.51562207542336
H         8.32397091692670    0.91541287293868   21.59013624010074
C         8.79250072617173   -0.17640079562125   19.83249883755061
H         9.31888013470775   -0.95221140881583   20.36852868998553
C         8.67973602093833   -0.24943583012820   18.44088310476654
H         9.11692446263138   -1.08377968938870   17.91215225186622
C         8.01787967344486    0.73003699308958   17.75054476459000
H         7.91648605019584    0.68577572775370   16.67668040682823
C         7.44081057796556    1.82005121916004   18.42847489587022
C         7.54162088757554    1.89520089925380   19.84421203010563
C         7.01023698230033    3.12063091208430   22.00762659397776
H         6.48811301765929    4.01231145742169   22.34478866686303
H         8.04928245520884    3.18413918255198   22.32843203953940
H         6.55944609473824    2.25233060991992   22.48653428336374

