62
CSD_code = RACNER | q = 0 | S = 0 | Stoichiometry = C24H28BN7NiO | MND = 5
Ni        1.80460420729434    2.35037728670903    4.78378147605704
O         2.06294920353966    0.89563133391849    3.32224293288517
N         2.63495396209274    4.13751839399278    5.29396044254448
N         2.24377774427247    4.62040217873544    6.48458605500519
N         2.47978292388190    1.68644524397979    6.36377025221936
N         2.19277248037779    2.36934431065521    7.48915325573687
N        -0.05715715679278    2.66891610117809    5.76620172975232
N         0.05912803936348    3.45424044278576    6.85150765138465
N         1.15421666277708    2.88172864064665    3.16780952475071
B         1.44985760888535    3.71822862241393    7.45386649260699
H         1.37512942484507    4.20300211732330    8.52442342096738
C         3.32340857282716    5.08140469422518    4.66126828684581
C         3.37883180232933    6.21611517861508    5.47376864337981
H         3.86216068694946    7.14644848073826    5.25493866298224
C         2.68179514656331    5.88404367620054    6.62292106859079
C         3.17436051988668    0.60063461494880    6.69579142699848
C         3.32816543650654    0.58010279833292    8.08463258674542
H         3.83477973218268   -0.16522058365618    8.66355795879151
C         2.69291032873535    1.71477010585205    8.55155969986394
C        -1.34471640962300    2.57964973633620    5.45556622191411
C        -2.08675014447632    3.33142893633710    6.37120671120809
H        -3.14994497942397    3.45922489943078    6.39423858914273
C        -1.15876581530398    3.87202114284950    7.24274414873763
C         3.90358936970686    4.84994172614767    3.31299463059178
H         3.87893985064708    3.78234316372423    3.09286319592818
H         4.93157164762268    5.20422948966727    3.27126635864510
H         3.32611393825152    5.37665521205090    2.55310249512869
C         2.42994195085166    6.71822477520032    7.82672799385485
H         2.89691775458487    6.27459922387272    8.70436761493963
H         1.36265996335430    6.80274442536878    8.02074825633929
H         2.84134433653726    7.71215498793239    7.67364637601643
C         3.71373791158708   -0.37687882097141    5.71444230595571
H         3.23395173524781   -0.24514035913535    4.74938444078293
H         3.55055972024368   -1.39326011850462    6.06713645080482
H         4.78698454923811   -0.22615213859858    5.59475937605351
C         2.54995463807867    2.17835941856423    9.95644571702745
H         3.02946945254429    3.14576769317153   10.09416792940553
H         3.01410136675595    1.45733459969302   10.62390387574090
H         1.49933790154670    2.28032930475404   10.22134125958233
C        -1.82190844200925    1.77174985739371    4.30219330967254
H        -1.02938033914991    1.09963032560044    3.97764749648968
H        -2.09323481177102    2.42020437012719    3.46835135549429
H        -2.69680198925993    1.18803102188138    4.58137307287525
C        -1.39028428738613    4.75786400642747    8.41376441737058
H        -1.01997720755245    4.29383280821128    9.32613042650772
H        -2.45463005415799    4.94823905335582    8.52156717127627
H        -0.87414172752366    5.70774129730475    8.28579437231267
C         1.45883746634292    1.71763166862275    2.56643592143834
C         1.09826058786394    1.49271161871829    1.20131789989657
H         1.36640282937022    0.55162294727735    0.74776124512986
C         0.42936382256573    2.46594459058518    0.53507076505079
H         0.13983797711331    2.33289530814991   -0.49864993040085
C        -0.63143164383247    4.70733123063521    0.54295438251850
H        -0.91477825494447    4.57075106228595   -0.49131687663382
C        -0.96580679991882    5.85590825750014    1.21240286203501
H        -1.51464614465411    6.63881754929820    0.71065615022324
C        -0.60064050032065    6.01602412091060    2.55406345504224
H        -0.87659330427190    6.92118623547487    3.07509522180935
C         0.09952744874984    5.03775003163635    3.20893517872603
H         0.37825175375348    5.14966100309608    4.24582173629717
C         0.46124057792171    3.85294311838051    2.54141988965326
C         0.08030697857361    3.68121758163806    1.18411496131117

