34
CSD_code = RACPOC | q = 0 | S = 0 | Stoichiometry = C16H9NO6SW | MND = 6
W         6.84224657888125    9.95506990706025    2.12647908050864
S        10.58947009645453    7.00662867689175    1.41012747953939
O         9.95177038976749    9.66823203439515    1.64157328808965
O         3.98693060201479   11.21644549831512    2.49992375344966
O         7.00275833439568   11.92035592119758   -0.31636292099081
O         7.68491578127590   12.15570757869077    4.19888058529636
O         6.30647464846222    8.11988899525091    4.62055774309377
O         5.60191244112483    7.91504793957769    0.08404329197734
N         8.65793557464462    5.37949126106359    1.86794905401255
C         8.78623443570034    9.07143393740454    1.83932332084712
C         5.01996082486666   10.74857570239645    2.36929003181064
C         7.03701289527859   11.19667828262814    0.56826142126949
C         7.47649362547088   11.33783036125873    3.42756205251680
C         6.52954772014622    8.75792282818475    3.70194625414084
C         6.08367991888368    8.62656684810272    0.83373407400464
C        10.06836767841236   11.07114596217317    1.64107357287221
H        11.11270932370152   11.28769424094583    1.41775408371757
H         9.80856116666516   11.48330403969562    2.61983909119965
H         9.42564892781005   11.51948119570638    0.87856997204818
C         9.00456526999568    7.65916226484800    1.78657699958890
C         8.13912189186719    6.59644196546863    1.99507968661025
H         7.09821138906226    6.68457282205963    2.25339885790815
C         9.92562387658123    5.39917467084979    1.55972253837806
C        10.71778418087641    4.21297470517758    1.35367425369562
C        10.11377321655372    2.95775670574991    1.47841181300605
H         9.06623099780059    2.91203183392197    1.72993494088070
C        10.85529131836809    1.81104022187542    1.27968939187080
H        10.38482851728930    0.84403317911402    1.37625880869151
C        12.20118627038341    1.89705608588632    0.95602306470790
H        12.77831663168874    0.99786577359276    0.80051332165043
C        12.80694449944169    3.13827960035243    0.83169504548637
H        13.85480903648033    3.20514149410784    0.57998973232270
C        12.07349901999068    4.29095961560950    1.02856782187714
H        12.54258291967248    5.25970785049086    0.93223849391685

