73
CSD_code = RACPER | q = -1 | S = 0 | Stoichiometry = C36H30O4Si2V(1-) | MND = 4
V        18.01823479866484    6.36845831239221    1.54262239751304
Si       19.12857643476505    9.30050612159818    2.54322359206944
Si       15.12190948803207    6.07117127920866    2.49087935858122
O        19.19080277386399    5.37295318810822    1.54561008980349
O        17.58451421492544    6.61311278948093    0.08638081554459
O        18.51558184004840    7.87208352885157    2.22761031438999
O        16.66881913274390    5.72896868967122    2.52031913425709
C        18.26824778338608    9.93485976824882    4.11872188757166
C        18.53974913642092   11.16410118017074    4.70605622709875
C        17.85000371280717   11.59345503007340    5.82615409852457
C        16.86939432186743   10.79231967945400    6.38569641138982
C        16.59486188923670    9.55671730254666    5.82488949447202
C        17.29143964500082    9.13776197975096    4.70664745337225
C        21.01637929591455    9.11058453555402    2.75157691761786
C        21.58440184569242    7.88991456981331    2.39012056953665
C        22.94953140473712    7.68589327910672    2.49000894750169
C        23.77349730749822    8.69964865266671    2.95119857012881
C        23.22454297934341    9.91923307752810    3.30939890549452
C        21.85899178380161   10.11839708155146    3.20691046218399
C        18.82156839174633   10.45700196172775    1.05658551043027
C        18.75132779850372   11.84307455777456    1.13642873589743
C        18.51281672833623   12.61555172968884    0.01276503164118
C        18.33863023835421   12.00858572795957   -1.21921108905238
C        18.40424838278393   10.62803181060054   -1.31761456609701
C        18.64640937954842    9.86113003972835   -0.19149237359830
C        14.28711885809933    5.34356290655612    0.94337046862644
C        15.05906958491624    4.60803714819603    0.04953600407384
C        14.49452872230049    4.05789227543618   -1.08843345082248
C        13.14528126197308    4.23231657241552   -1.34974699061195
C        12.36645482952872    4.97056365633360   -0.47441866819051
C        12.93741240797777    5.52301958430699    0.65860822688506
C        14.83407386104993    7.96068433994104    2.52246981106508
C        14.09135657630208    8.59760341313368    3.51141161468093
C        14.02038799439272    9.97805378478276    3.57717292414182
C        14.69589351018027   10.74944001362595    2.64744572758998
C        15.42419224266097   10.13310716896080    1.64342292584276
C        15.48996880979041    8.75165877219886    1.58232343877419
C        14.31977515362630    5.36241389278160    4.06849926760941
C        13.20261519289393    4.53927932676410    4.02917018006715
C        12.61255463233970    4.07071970144162    5.19050599499338
C        13.13479338247495    4.42113273280045    6.42367536314942
C        14.25323916219929    5.23546075386542    6.48353468992234
C        14.83420195619636    5.69710393415447    5.31603233797251
H        19.30687675130433   11.79854405370616    4.28557944168465
H        18.07530308922063   12.55707455350041    6.26504972335446
H        16.32464543930079   11.12969287232906    7.25756518971239
H        15.83287152714942    8.92314141794934    6.25799521825151
H        17.07830070191827    8.17345487425020    4.26642614350916
H        20.93533469136356    7.09936869996786    2.02700211616600
H        23.37372676410378    6.73285068743478    2.20619659755793
H        24.84126707999821    8.54204925387578    3.03048086211508
H        23.86402816884188   10.71576868016815    3.66811562153141
H        21.44118206145442   11.07556693044964    3.48564615650276
H        18.87092687327234   12.32826950339775    2.09437820741054
H        18.45739640759418   13.69348139208376    0.09752344600782
H        18.14766189020230   12.61043741037111   -2.09813638595429
H        18.26187074419839   10.14769220345722   -2.27558493281595
H        18.68489253964522    8.77945593459377   -0.26346073140527
H        16.11948086546867    4.48637401058721    0.24959673250422
H        15.10815505984053    3.49257978781519   -1.77629726900039
H        12.70109064645808    3.80004427180901   -2.23712545891627
H        11.31333690554466    5.11731688689113   -0.67906681048108
H        12.32697523103344    6.10928974554200    1.33328048021104
H        13.56911146014429    7.99958815458749    4.24754986420926
H        13.44598132587228   10.45458343513260    4.36130091698775
H        14.65568993914935   11.82900560638961    2.70603850585131
H        15.94770651929250   10.73156684573141    0.91100253371273
H        16.06561843128294    8.27364511547149    0.79835304785792
H        12.79090403163012    4.25763235830915    3.07051972713921
H        11.74228673015300    3.42937357618634    5.13587901617787
H        12.67482565158742    4.05861973828809    7.33367163876537
H        14.67039064507983    5.51005221974610    7.44373196449439
H        15.70936298084739    6.32901392908371    5.36872167484310

