79
CSD_code = RACSEW | q = 0 | S = 0 | Stoichiometry = C32H42Cl2NPRu | MND = 5
Ru        2.41405823808656    9.70236082167247    2.08285590797433
P         1.65134032158009    8.45809381634467    3.93788999787137
C         1.46451436273864    9.43295374382365    5.51872420713049
H         2.50635712840949    9.62628704004091    5.80242250821569
C         0.82975551100956   10.80923464162164    5.31717498277974
H         1.34272331784077   11.32584261196947    4.50039997124137
H        -0.22687442483711   10.71464300686098    5.05980455749529
C         0.95896041233298   11.62428780256570    6.60227596390020
H         2.01700210535768   11.78183537475677    6.82092482232911
H         0.49718011615442   12.60409436305441    6.46472151065797
C         0.29979135619373   10.89763786545231    7.77111038433396
H         0.42237960320107   11.47807000010586    8.68769355261773
H        -0.77148813516002   10.79922587582952    7.57918284560418
C         0.90903149065171    9.51032879443618    7.94934551179310
H         0.41455528152774    8.98844026698132    8.77187916081098
H         1.96702787790284    9.60910069901394    8.20275936871585
C         0.76636717300141    8.69969334644606    6.66206509781905
H        -0.29640346123903    8.58805288534130    6.43753636467727
H         1.19342962746732    7.70366640214862    6.80217636755929
C         0.12360814023121    7.39398369144017    3.83838073886891
H        -0.09108333158651    7.03738473017246    4.85359284522125
C         0.27738841944566    6.18012266377588    2.92115818554849
H         0.51535147530518    6.51905832847092    1.91205132478451
H         1.08118086720506    5.52790843861299    3.26670834192122
C        -1.02238671958116    5.37847124342172    2.88640754585417
H        -0.89599140236560    4.51166581696013    2.23470692408710
H        -1.25497581274656    5.01151099073733    3.89033194770951
C        -2.17166449832350    6.24386888196275    2.38374089284774
H        -1.95389267835435    6.57274512337886    1.36599293042057
H        -3.09789807093150    5.66554973401991    2.36325709619660
C        -2.33355018537208    7.46381315427870    3.28266155115315
H        -2.60315008011405    7.13941439269512    4.29168739793322
H        -3.13875167023814    8.10033748448053    2.90981214439703
C        -1.03168459413870    8.25789756427550    3.33322131269967
H        -1.16016714818894    9.12900282628331    3.97924900080942
H        -0.77828132018706    8.60904310012776    2.32873489787864
C         2.96790530107803    7.19228999636002    4.36212030613447
H         2.46013311592553    6.28544936206719    4.71659755996915
C         3.69646458739616    6.89480267846575    3.04548398209654
H         2.98192371925377    6.59271183774839    2.27345291008848
H         4.19187828473245    7.82598081517438    2.72298497331219
C         4.75851750548686    5.81572562883133    3.21954316395877
H         5.26347878972105    5.63429960307830    2.26791921529919
H         4.27844085215370    4.88176315042681    3.52370212102903
C         5.76793177621408    6.23986225287875    4.28041359311742
H         6.51538604057857    5.45667569628372    4.42396773891637
H         6.28641791084003    7.14291805528451    3.94970780442760
C         5.04951083751696    6.52600933015014    5.59399604082018
H         5.76993826552406    6.84320709802012    6.35086689327212
H         4.57123253976198    5.60976235178427    5.95137903383025
C         3.99185489805877    7.61579425524980    5.41645125275483
H         4.47743721381989    8.54367796634491    5.10529072374438
H         3.50637145591197    7.78379217341797    6.37898287645131
N         3.37400804854084   10.64338764093423    0.61140383920994
C         1.03702018232739   11.00267323551980    1.97871147532479
H         0.10538496423448   10.82376971799740    2.52453490228386
C         1.06092745463922   12.24888690947393    1.31544653253336
C        -0.02153078649043   13.11532996836874    1.54794783699076
H        -0.82074350510243   12.77330891143414    2.18944749198571
C        -0.08660404613468   14.38314256703615    1.00224899637608
H        -0.93195449930733   15.01957333877951    1.21821964609562
C         0.92712951346642   14.82697273157380    0.18405260358488
H         0.89056381851724   15.81470014696110   -0.25096056556736
C         2.02129872277794   13.99980287814661   -0.10744574091658
C         3.03778839943307   14.47812464606603   -0.98237365220695
H         2.93651832595672   15.47827900645684   -1.37782563375405
C         4.09200922382348   13.70482107449273   -1.31944035690686
H         4.85947851432405   14.06077338933610   -1.99084628838081
C         4.21723518344035   12.38937640861562   -0.79751700746156
C         5.29665948986901   11.57429052627602   -1.15905582488257
H         6.04378488756513   11.95293729382453   -1.84038613769185
C         5.38216828153236   10.30330088389699   -0.64146526629582
H         6.19007613211790    9.63699548103001   -0.89796826543365
C         4.39605163734912    9.88865446241712    0.24254999582261
H         4.44240103418451    8.88415083464066    0.66438556280137
C         3.23843845713880   11.88739542439986    0.10457255586312
C         2.11191816275761   12.70087902306545    0.45256705974715
Cl        3.98904355001995   10.61398173968782    3.50632931903999
Cl        1.63494646675870    8.22904198449240    0.48166857076323

