76
CSD_code = RACSOG | q = 0 | S = 0 | Stoichiometry = C35H35Cl2N3Ru | MND = 5
Ru        7.35890908063227   11.98740711933826   23.98441931658326
Cl        7.17557502740296    9.95068732166629   22.82816031031166
Cl        9.50950776419121   12.13912684751373   23.29590761145265
N         4.37429100500658   11.34908207576811   24.11708608571234
N         4.97534088781471   12.62782640647875   22.46753567829905
C         5.38367693177511   12.05014881308971   23.60639835326667
C         3.16728795877886   11.41041110243081   23.29581192499116
H         2.34212845641689   11.84152498461551   23.87332158731278
H         2.87730851792285   10.40786925808510   22.97551818989510
C         3.59971189611306   12.28906007641159   22.11858899352338
H         3.57873233670425   11.74835303833271   21.16730176653446
H         2.99516911956676   13.19474416754082   22.01303192234263
C         4.33732907425156   10.72528943981143   25.39455149424173
C         4.38041842886732    9.33331433207799   25.50610972772038
C         4.31960865654828    8.77411042049577   26.77441404370564
H         4.36663716172327    7.69888233437245   26.87310906883686
C         4.20501188133517    9.55256339624664   27.91682628935074
C         4.13890407092311   10.92971186448660   27.77572175966653
H         4.04319119923709   11.55249963979919   28.65353008982376
C         4.20166784128941   11.52989764251061   26.52835203241762
C         4.49748060942547    8.45743752358075   24.30149631285658
H         3.54904086241179    8.40510493763875   23.76673074251503
H         4.77248322914054    7.44776799936597   24.59319421662596
H         5.25885474369296    8.84616350011485   23.62433315920788
C         4.15180193537081    8.90787990803945   29.26804837947519
H         5.03235498281807    8.28715886695700   29.42532914541962
H         3.27553132582627    8.26553545291837   29.34796020598384
H         4.10733800316373    9.65669324837457   30.05441035920331
C         4.11929823349199   13.02211921824179   26.40703386496653
H         4.95203118235505   13.39515029843340   25.81214669700667
H         4.16198674473655   13.48712301309439   27.38822939376380
H         3.18604695041439   13.31923093908524   25.92664128451684
C         5.66258422029583   13.68104653736834   21.79565475563446
C         6.56658541197602   13.40147032464251   20.76453648799129
C         7.20957677164874   14.46369515740792   20.14163453565552
H         7.92279316703491   14.25080328600951   19.35842440427126
C         6.96052156132036   15.78157903864745   20.49417375255867
C         6.03951372956657   16.03402696972050   21.49937759583151
H         5.82361439365199   17.05422416719268   21.78388969565607
C         5.38853965670641   15.00399945650117   22.16256934460509
C         6.87621166586928   12.00523892306704   20.33498893936032
H         7.77089125211985   11.65152138406613   20.85489376026612
H         7.08366889917872   11.97045778445272   19.26759856540912
H         6.07127790500988   11.31324439277801   20.57004090150288
C         7.68235623747779   16.89721011225231   19.80330988816226
H         8.74792461254389   16.84823544734145   20.02600115277472
H         7.30485774781985   17.86529706206796   20.12296023503883
H         7.56679815937464   16.81503444425643   18.72391912909862
C         4.41099485078940   15.33896701202787   23.25048256012439
H         4.74049947278038   16.22413178904117   23.79069775767079
H         4.30902056894977   14.52234847986468   23.95965513155440
H         3.42939525496123   15.55504947720318   22.82573628986700
N         7.58758045902107   13.74348013981031   24.89836987662845
C         7.36473653861428   11.10421514553999   25.64476580856491
H         7.42465934296110   10.00889648206357   25.62038860989759
C         7.36199164598647   11.65578308128147   26.94338825981852
C         7.32146371567214   10.75615161601988   28.02000245570875
H         7.35337420062057    9.69973490655681   27.79939471689118
C         7.21807760704918   11.17610305686535   29.33206657812480
H         7.17950088724490   10.45029636869740   30.13068267237550
C         7.16322438767741   12.52211058435773   29.61112686016175
H         7.07626353744142   12.87004786714744   30.63015637534339
C         7.24292079529417   13.46924978828884   28.58030937483404
C         7.35039814726475   13.06031018175845   27.22550618928078
C         7.48466513195438   14.06890545556625   26.21396047669035
C         7.86286384175479   14.69617399518239   24.01422647398905
H         8.01961085499289   14.37535822251976   22.98897603665171
C         7.96721202619549   16.04207986554614   24.32909921280523
H         8.18934671016027   16.75572895659178   23.55239399935883
C         7.77100015307123   16.42322108732755   25.63536809271847
H         7.81429736242330   17.46018091846223   25.93325557152713
C         7.54060742126906   15.43700142358267   26.60302753943070
C         7.38102778126285   15.79979391832161   27.96745277315413
H         7.39977358568039   16.85009784218632   28.21905470480502
C         7.23157793487125   14.85188675928223   28.91655861955463
H         7.12244429309604   15.12193590421479   29.95697383112837

