55
CSD_code = RACVEW | q = 0 | S = 0 | Stoichiometry = C24H27Cl2PRu | MND = 9
Ru        4.96609844608444    6.02623058687625   11.92598834909704
P         4.42101100973292    6.66550785176566    9.83053935522377
Cl        6.73504721518271    7.57871634949219   11.71609903041864
Cl        6.29317231800664    4.47260075425576   10.75063129278460
C         5.03624926433199    5.88882423769743   14.24286154301506
C         4.16761069657001    6.94700965262782   13.83848819083738
C         3.08517690053519    6.71535024607210   12.97958326048997
C         2.87563616375585    5.42110262683832   12.41827753643140
C         3.74433508542496    4.38169965471684   12.80356087276675
C         4.79346857256097    4.61047604611663   13.73060834511620
C         6.14400869868691    6.14988161596807   15.23488336476986
C         7.48077673017172    5.59833938032859   14.73510268743583
C         5.76935092769506    5.55215118879343   16.59519153406006
C         1.70824683012366    5.16192103522628   11.50518412592595
C         1.72741912676243    5.98604066796483   10.20876228058543
C         2.93706510500608    5.70009204182557    9.31553142778121
C         5.58949277838088    6.49387627567158    8.45654218270374
C         5.59877579683631    5.39166732582130    7.60874240668678
C         6.54871274840094    5.30564173187194    6.60718659397793
C         7.49465282678922    6.30562336270898    6.45363506521284
C         7.49556482205748    7.39717775716214    7.30683387136371
C         6.54702035881760    7.49473071961427    8.30730417365220
C         3.86848941240484    8.38684722922653    9.61668213906136
C         3.96333060677006    9.28556739502703   10.67124611646919
C         3.53675211611844   10.59255869485010   10.51007745909511
C         3.01356607709703   11.00559844844148    9.29659028452099
C         2.93113320872556   10.11526406703200    8.23676448744679
C         3.36032228995274    8.81091132652551    8.39194345722707
H         4.30550667387456    7.93233636855481   14.27341357583196
H         2.37712149519559    7.51087978464434   12.77176946887234
H         3.57344880341164    3.37393972478640   12.43964807194811
H         5.40303841717240    3.77146776867756   14.04349839369116
H         6.24862086290089    7.23526286776861   15.34735508234485
H         7.67660008910984    5.95492311448696   13.72387430522551
H         7.48428085255582    4.51077394976104   14.72671354609660
H         8.28742204594628    5.93745826513064   15.38032879598409
H         4.83090153466509    5.97048253219570   16.95600316271281
H         6.54722368634093    5.77103234518217   17.32244917725641
H         5.66018226101510    4.47168508365353   16.52348776452958
H         0.78449532507367    5.39572233416790   12.04517422448201
H         1.68474812514864    4.10047656558686   11.24531389055810
H         1.69700045715049    7.05417788116522   10.44403878874116
H         0.81555559533623    5.74668334522537    9.65609005866171
H         2.70676165323549    5.95782857691825    8.27846030161007
H         3.20557113460987    4.64025426280551    9.36104832196070
H         4.88449936299554    4.59360341801319    7.74303970333232
H         6.55793284532946    4.44736090909282    5.95124983630012
H         8.23954098190616    6.22746797650136    5.67524302978164
H         8.24244485449212    8.16952843060335    7.19849844304876
H         6.55219336576804    8.33019655365110    8.99432462447483
H         4.40485533569831    8.95799391707089   11.60383119109892
H         3.61843762476715   11.29073425261920   11.33008214462597
H         2.67979095239994   12.02499458483117    9.17022062742281
H         2.53666008482069   10.44229395892803    7.28573639947968
H         3.31617944609849    8.12113295745571    7.56016563576191

