37
CSD_code = RACWUO | q = 0 | S = 0 | Stoichiometry = C12H14CdN2O7S | MND = 6
Cd        2.89915198095169    4.73185998375834   16.27468654310061
S         5.01973873098934    5.67705459202428   15.48303726394223
O         4.20605617871492    6.46608359530119   16.49194283860161
O         4.15724492559114    5.64325959083804   14.25524009165026
O         5.00427412885340    4.27974556664475   16.02600348994787
O         6.32167624269571    6.21731320674897   15.26039332073080
O         2.62376442610470    7.87219988828404   14.95379270548412
H         3.08933643112020    7.73288092084408   14.12105019427848
O         2.96364357101495    3.36927024227134   14.42144229303762
H         3.44818546245119    4.20196506932093   14.13105357009435
O         1.22560952751230    5.65633346058516   15.13712352541173
H         1.63785351519627    6.56781427385688   15.04236871297432
H         1.30567211647892    5.26380067709182   14.25759444676776
C         3.67522251161991    1.95946477926532   17.73126303963391
H         3.32820713938070    1.41313295809932   16.86223771805367
C         4.58424786103588    1.37599007453355   18.61964119680794
H         4.96030918736977    0.38293142157870   18.42998953968543
C         4.99332552100807    2.09151801131155   19.71818130170820
H         5.70479990159230    1.68204982161060   20.42090466119688
C         4.47797631619713    3.38176149342597   19.92566596809635
C         4.84852046916053    4.19308474732807   21.03701581208079
H         5.55007367109685    3.78778223301501   21.75130768856701
C         4.34680441310709    5.44194282058702   21.18764120244215
H         4.63876478822593    6.05851233764590   22.02508924675257
C         3.43198466573598    5.98551304918234   20.23992347098079
C         2.91157300979235    7.28702990616515   20.33970143459461
H         3.20676990889794    7.91636508507065   21.16714061806207
C         2.04472243469814    7.73695108825963   19.37454330530202
H         1.63384888676933    8.73328918481660   19.41527145460764
C         1.70799046807754    6.88839323662240   18.31402754641134
H         1.03051913250655    7.21679653755540   17.53582210525487
C         3.03254154238436    5.20856473555754   19.13010708701118
C         3.56678211694214    3.88194367354063   18.96831544633619
N         3.18528282820201    3.16862037482646   17.89445772108499
N         2.18294513457845    5.66826676310742   18.19646233910609
H         3.26936172776012    7.51775094215493   15.61935153278485
H         3.70721912624308    2.79706365714309   14.65190956745837

