47
CSD_code = RACYOM | q = 0 | S = 0 | Stoichiometry = C12H16Br2CdN8O8 | MND = 4
Cd        6.02709443123648    0.93248634831298    3.18120851495998
Br        4.51270532476680   -0.53057365212879    1.88772449882461
Br        6.13453534407263    3.42894145938951    3.00712969379567
O         9.70508223827909    1.66835944824844    4.20169003157890
N        10.90527841889152    0.32477601199703    5.53515187016793
H        10.49572076660458    0.81235776966857    6.32231569997426
H        11.70136237108730   -0.26603036226302    5.70559471042425
O        10.44531577465954   -0.35211480216082   -1.68188299392065
O         8.90085008665416   -1.79313817781179   -1.27056232764946
O         9.64930962533624    1.77717037001058    7.71519306376385
O         8.56744145127784    3.42524988166226    8.57674906796741
O         3.69801959573594    1.47751841466533    4.77364194290207
O         2.30100716844981    0.81356963123130    6.43152449883949
N         8.06660935481236    0.45219760660363    2.01412587054099
N         9.86513364877778    0.89193633864362    0.80507606594991
N         9.54413848995784   -0.80315635642186   -1.00283621916296
O        11.36075953980388    0.41732476220136    3.31435640964221
N         6.27090265103416    1.00883635453672    5.59589123373612
N         6.34776035747246    2.76778978651552    6.93864018679746
N         8.65214523473632    2.47349736531765    7.83035085756543
N         2.20228947869182   -0.14045084432623    4.37286058185690
H         1.47986157704022   -0.78746084408849    4.63554523900906
H         2.63321518185720   -0.21962855086570    3.45984883335888
C         9.15676971492728    1.20665693294928    1.90198908913418
C         9.18901706583779   -0.13910212313229    0.19587168093635
C         8.07411903162685   -0.39438551543974    0.96738806224145
H         7.30527290966910   -1.12574191407276    0.79708433686603
C        11.13024442654850    1.47027810842242    0.42930880754847
H        11.01857449329910    2.54321917383550    0.27294745003382
H        11.47695424930062    1.01044565950972   -0.49278358054300
H        11.84861054364919    1.28057720066439    1.22891750196732
C         9.54112602838213    2.24187074196867    2.90794312977326
H        10.46863751468488    2.73617054545833    2.60615063764376
H         8.74314875449736    2.98138815703975    3.02570570951477
C        10.73227894274024    0.76937420285505    4.28317123829270
C         5.61370725323414    2.06840020757220    6.06136458063291
C         7.55544727526942    2.10710417665821    7.03760692863681
C         7.47157811046569    1.01299023827648    6.19388372711068
H         8.20191066559679    0.24893644587179    6.01228406585353
C         5.92324575846373    3.99511840884328    7.56015155509935
H         5.76646533477739    4.75444929928011    6.79221611650542
H         6.68503496931271    4.33585509578530    8.25744485570968
H         4.98665507384459    3.83137284296357    8.09374812988419
C         4.22385041421154    2.43062203830362    5.67313511497492
H         3.57853450216927    2.45333634567844    6.56717517221613
H         4.20716671472825    3.41254668073475    5.18323645437107
C         2.67901214163610    0.69285909101913    5.29492190492314

