37
CSD_code = RACZEB | q = 0 | S = 0 | Stoichiometry = C8H16CoN7O5 | MND = 6
Co        0.18570456345687    2.31522877457523    1.78557371111595
O        -0.53434820560467    5.14030588296182    2.13729256316293
H        -1.28531986637571    4.52731465643623    2.54526294418615
O         2.64393133975004    1.38732446880790    0.44291022431491
H         2.04974278241967    0.56632733142167    0.70945581314684
O        -2.07874633513390    3.33370910296331    2.96110208497077
O         0.88983713841525   -0.26649205570028    1.18459059894131
O        -0.82433085124483    2.25007441089704   -0.09806053700164
H        -0.44645817356730    1.61513321905822   -0.71616009362212
H        -1.01785498567607    3.06481640096681   -0.57039888623398
N         0.38272778456172    4.25857282360380    1.70108653694068
N         1.91982775003597    2.44178360940443    0.86759670743580
N        -1.43795867096433    2.25694160351067    2.67007491253440
N         0.04115327765112    0.47388572338451    1.81562948679005
N         1.06792170533222    2.29923094234443    3.41110614683221
N         0.87181755464597    1.67470425754644    4.38537190221425
N         0.81146384409659    1.15000111900484    5.38716407960397
C         1.91672865147354    6.11646793578587    1.22206000645908
H         1.10600453547622    6.72583140083712    1.61284111994111
H         2.14210660289414    6.42572028660850    0.20269943162940
H         2.80565860924993    6.27414336502961    1.82975801071079
C         1.51973310670942    4.67888998844485    1.26431988521681
C         2.41197677647136    3.62967503216837    0.79627179571644
C         3.77517849677116    3.93912484802417    0.27588752757130
H         4.26239295557636    3.01719155404589   -0.03067649116942
H         4.36945393965348    4.41341181397762    1.05460820405623
H         3.72046955803743    4.61933444900852   -0.57237391179835
C        -3.11885339605805    0.79324750258336    3.70041319000642
H        -3.58790685726872    1.74232188937757    3.94887166418046
H        -2.89727369052304    0.25078997003405    4.61802292797682
H        -3.80501304327374    0.19561594947697    3.10266188881563
C        -1.85642156676651    1.06133140216555    2.95085036789721
C        -0.99963004150890    0.02071980278221    2.44261773032097
C        -1.29718316888320   -1.43430837118420    2.58853858135757
H        -0.51556673428269   -2.00495130072926    2.09235895653032
H        -2.26141666728163   -1.67821446582425    2.14567807053473
H        -1.32404871826485   -1.70330532379970    3.64309284871462

