47
CSD_code = RADDEI | q = 0 | S = 0 | Stoichiometry = C12H16Cl2N8O8Zn | MND = 4
C         4.43023733380626    2.30644008219535    0.10779132362293
C         2.68309692541596    1.07206646886043   -0.06396007436090
H         1.97274958752763    0.31026181449381    0.18288774706615
C         2.72130293720988    1.90240918367433   -1.16899283076797
C         5.69424621184104    2.82963360078275    0.69041135110853
H         6.34113302994873    3.26127629152156   -0.08027366489000
H         5.47188810938014    3.56056057140867    1.47653593001273
C         6.80200753809601    0.80066099571683    0.45527243720149
C         4.39633558668903    3.65613433699252   -1.95019272205216
H         3.72784910659985    3.77362215651398   -2.80000186091454
H         5.37052929097255    3.31312930897268   -2.30303150998552
H         4.51208894133207    4.61188872014137   -1.43934512143853
C         1.23927442505591    1.25224199992738    3.82261305048775
C         2.26182384211583   -0.47439672127610    4.59322482591218
H         2.99369116931029   -1.25549803138138    4.66679836545668
C         1.19800497431145   -0.21106978387519    5.42998146781255
C         0.87962045569941    2.37636820209658    2.90803724968366
H         0.05799944146091    2.96118490360167    3.33043220771544
H         1.76103431126154    3.00711538541015    2.75413902774128
C        -0.63147219223535    1.16554885202006    1.57373479043078
C        -0.62058365339196    1.55103703659328    5.43031482111353
H        -0.96514285592453    1.03339096220103    6.32175805658065
H        -1.39240240278731    1.51596225758916    4.65983740163718
H        -0.39269477465761    2.58636476685197    5.68379380116049
O         6.34640933015110    1.75797997656562    1.34075715751099
O         6.65103649520279    0.93226657389369   -0.73655558263652
O         1.95433292166887    2.68764790168521   -3.15337604648454
O         0.74582731829230    1.32288476241041   -2.01125974106048
O         0.51764510692685    1.90479767844342    1.61370154247746
O        -1.28929780980023    0.92894849290839    2.55823817323456
O         1.45693657778867   -1.97708532694907    6.76619889882383
O         0.00218462937414   -0.50031387195456    7.33898414018312
Zn        4.16111424164320    1.03092750556172    2.76356352572575
Cl        5.48385382540291   -0.56231946330755    3.46716613005031
Cl        4.08256932513707    3.15642496473332    3.45851790504349
N         3.85707064337037    2.67695204669607   -1.04090607435508
N         3.74121189153772    1.34026603526201    0.71006963771125
N         7.42908710388492   -0.18882081483185    1.09204017434937
N         1.75703101574053    1.98315630037593   -2.18711423294242
N         0.56217196738985    0.89965596477000    4.92544206638945
N         2.27855739847653    0.44566102677098    3.61184597508842
N        -0.90721500479491    0.74025385768298    0.33631069577218
N         0.85370017744373   -0.94203434286247    6.59425245913622
H         7.70139918148988   -0.99160554405614    0.54960144002591
H         7.22222020596880   -0.32571850268337    2.07866830279304
H        -1.75826042207660    0.22481687348702    0.19476274420333
H        -0.35550345922282    0.99962454441983   -0.46967536144346

