61
CSD_code = RADFIL | q = 0 | S = 0 | Stoichiometry = C26H24N4NiO4S2 | MND = 6
Ni        2.87986573609502    7.01373050628871    2.69109547004754
O         3.56758820568059    8.42760786028276    3.56510041167058
O         0.90177334912754    7.57803165893916    3.43200702767863
O         2.77170877805970    5.88392482083617    4.51816563924027
O         2.16261602909999    5.59034872483126    1.82446646696270
N         3.06201749476377    7.92377190852886    0.66121273222885
N         4.96434867893144    6.42721186546859    1.93135695768119
N         2.31480113442697    7.32356240950569    8.22388946918204
N        -2.12372813129052    5.02137312613759    4.31006889316065
C         4.15255397215623    9.82333913111657    5.35668485356137
C         3.14412402147827    8.96557162815595    4.62023147089533
C         1.85265889376877    8.84091062009925    5.15416808175498
C         0.78845807621994    8.13172434020594    4.54004448265598
C        -0.54363911115361    8.06100122897216    5.24527323660632
S         1.53535933441476    9.60135568494940    6.74668971758967
C         1.99311858115181    8.26283991099302    7.64818251027607
C         1.59957221393557    4.58846384926468    6.11478664902952
C         1.90442763498522    5.00998341286930    4.69872499755549
C         1.20664816582194    4.39297580869570    3.63167362207433
C         1.39960588358604    4.70004289163681    2.27686065132397
C         0.64024633121998    3.90196635012347    1.23780607354133
S        -0.02136048066231    3.15366784263016    4.04165408975953
C        -1.28862044978128    4.24135422622007    4.20523195814057
C         2.15852260166506    8.68629082297432    0.07528539236556
C         2.13545392561449    8.85771796718958   -1.32197086979378
C         3.07704745851871    8.23841950356595   -2.09824698099431
C         4.06361969480938    7.44873946456554   -1.48246974177785
C         5.09126077404820    6.79992916242157   -2.22068905757185
C         6.04207200513705    6.06956493148084   -1.59112486244233
C         6.03406489740401    5.93000528797112   -0.17617552392352
C         7.02145082378023    5.20537314883572    0.51624744608122
C         6.96838159699147    5.14304446752708    1.88113407507040
C         5.91645673636113    5.78007803117301    2.57109916122512
C         5.01393659949123    6.53326762369622    0.59162628836542
C         4.00681372077098    7.31740862672473   -0.07678890919158
C         1.16111079281597    9.37488475584959    0.93897812427946
C         5.88898447080806    5.75163202425600    4.06055728659476
H         3.74924320403565   10.81133969522446    5.56625020294439
H         5.04713076170096    9.91127643055340    4.74577908891832
H         4.41258902007982    9.34835932104556    6.30160669080162
H        -1.22631812392267    7.45016303836368    4.65904715090973
H        -0.42303884669890    7.61127954320602    6.22946411789491
H        -0.96093729258491    9.05784830851710    5.37538956458762
H         1.81758641256187    3.53135189930820    6.25462868962379
H         0.54523620702055    4.75040569939269    6.33341643598152
H         2.19849340852155    5.18245942260190    6.80134607948314
H        -0.42299182403673    4.12536771620300    1.31398419627901
H         0.78052409147586    2.83356078805892    1.38546219315580
H         0.99258344704111    4.18694439222237    0.24957988905614
H         1.37262946504545    9.47799640932429   -1.76677936561698
H         3.08027878959926    8.35243222179558   -3.17303830977480
H         5.09560891908192    6.91086084826548   -3.29526448551235
H         6.82841244055685    5.58140793415505   -2.14828905239364
H         7.81212484483021    4.71965065551670   -0.03801459693517
H         7.72071869964850    4.61159835636395    2.44381210562106
H         0.61519036326693    8.63083222329803    1.51933263193774
H         0.46431272723434    9.96862678020307    0.35412955354226
H         1.67913289388406   10.01575196430040    1.65176828533476
H         4.93380284441786    6.12752267958047    4.41771745961938
H         6.68625754838860    6.38305407565797    4.45239720126819
H         6.04680955860277    4.74019397185533    4.42993698237230

