77
CSD_code = RADFAF | q = 0 | S = 0 | Stoichiometry = C38H28FeN6O4 | MND = 6
Fe        5.29694143247040   10.33671209660229    7.16777818623821
C         6.39196154331487   11.96466624392092    4.99642779410957
H         7.19744490916395   12.17366413514571    5.68586967905575
C         6.39273101781597   12.50552520831239    3.72466671796848
H         7.19770596009871   13.14954624102271    3.41110700197994
C         5.34213356524249   12.19120294956795    2.86745825274993
H         5.31974839284221   12.58130595143602    1.86134174977422
C         4.33313785693533   11.37083130443058    3.32360343795602
H         3.51006481777948   11.08925144783058    2.68689802634528
C         4.38253287274891   10.88349032570595    4.63496825893354
C         3.41308708150729   10.02060666072924    5.24321510771427
C         2.15273233384055    9.61017911581518    4.61271266608044
C         1.31792420784446   10.55137701713396    4.01124136290112
H         1.59390528082334   11.59552430926785    4.02827020389049
C         0.12735008730703   10.15872217238570    3.42938604066959
H        -0.51274924078518   10.89738976749313    2.96906140207351
C        -0.25138799280860    8.82618558893310    3.44327673359714
H        -1.18282330831769    8.52330191078257    2.98873197562116
C         0.56502806640226    7.88686638900738    4.05030919435440
H         0.27174833906743    6.84804547144434    4.07244290452006
C         1.75781077740539    8.27351775537237    4.63120606901222
H         2.39465130204022    7.53643996576230    5.09582285437912
C         3.59802484449153    8.70944699385910    8.41747636138291
C         2.89117302552433    7.87485319528259    9.39488240310608
C         1.64151505518823    7.28821896447229    9.11866988204774
C         1.03268006444643    6.50890103511801   10.10511326249147
H         0.07501874465464    6.06679697880424    9.87852474590062
C         1.63810407245689    6.31450274053704   11.32786237885366
H         1.14830211860656    5.70758094031156   12.07508280639557
C         2.87016361050379    6.89522173789728   11.60317282344718
H         3.34067182217241    6.74310620979053   12.56244413772409
C         3.48370893048811    7.66744029207792   10.64236639028979
H         4.43954942506488    8.13445860157280   10.82565680717783
C         6.31670242388553    7.84492078040343    6.02634181694878
H         5.31612722265522    7.72473498721749    5.63654842164647
C         7.27235830872039    6.86445428946001    5.83937577040300
H         7.02836199330709    5.96642866761332    5.29609924349660
C         8.53934944357852    7.05947670288589    6.38192046252331
H         9.30301496737393    6.30413101996307    6.27609175967543
C         8.79972916853846    8.22849808609074    7.06350801652082
H         9.76003357557398    8.40892384223544    7.51899902484172
C         7.79027649968110    9.19014838235698    7.19035409798609
C         7.90475923574405   10.43150437567544    7.89734589441132
C         9.15259396901271   10.94732457139715    8.47278136940901
C        10.32272978057464   10.97423648077556    7.71417329882802
H        10.30654465044142   10.61562224617076    6.69459257792604
C        11.49070659547572   11.48375826155141    8.24957697706798
H        12.39074827714092   11.50163065950271    7.65198629812077
C        11.50761335308876   11.97818612863556    9.54357625773270
H        12.42140859354658   12.37745869265620    9.95775292783591
C        10.34771689962424   11.96329442253860   10.30024532182577
H        10.35408909992439   12.35158419122622   11.30752046784610
C         9.17760015489900   11.45257289466846    9.77131084410296
H         8.27747530882363   11.42793295155498   10.36509571488477
C         5.33658455175212   12.63503134534298    8.51658133018356
C         4.99563877780457   13.90601564727166    9.16445625612933
C         5.96170895577443   14.71021633067704    9.79828059536626
C         5.55548557670050   15.90919634974712   10.38820892908868
H         6.30764858932249   16.51493227769104   10.86909861203955
C         4.23440385186381   16.30109991257238   10.35773184686866
H         3.94321795021263   17.23119837807217   10.82325937974832
C         3.27902385457335   15.50703051761266    9.73515884064486
H         2.24497185262205   15.81526365606922    9.71527056056395
C         3.66302117195257   14.32330007020241    9.14579095400188
H         2.94536380374134   13.68280105967082    8.65582136378329
N         5.42944094167076   11.17264516204116    5.45011458700233
N         3.79459554704996    9.65493806265549    6.44739634228981
N         3.04283170289774    8.86410387518419    7.21508351447572
N         6.55042859796863    8.97444513830851    6.68083465448861
N         6.74689312982234   11.05271907967857    7.95592319678854
N         6.60412191106542   12.22445451971795    8.57768413435411
O         4.70383506314249    9.25232035280079    8.70814122906928
O         1.00186561543722    7.43685308731734    7.95195276720050
H         1.54758155171758    8.02639409215880    7.37584902960720
O         4.45299889560430   11.95600530479542    7.91711632897020
O         7.25944647757781   14.38550784912870    9.86324608578817
H         7.37876109177946   13.51052557887533    9.41925527877381

