67
CSD_code = RADKUF | q = 1 | S = 0 | Stoichiometry = C30H33ClIrN2(1+) | MND = 8
N         6.85032645056157    2.75101145433223   10.35917927710573
N         4.76296141147486    3.99952993406399    9.73580515389157
C         6.55439055846207    6.74282246345967   11.39188788507516
C         6.41498974943795    8.17726839398919   11.77159042206983
H         5.46432570659698    8.57755240549442   11.43186577219230
H         7.21903795530362    8.76887857311050   11.33644951970294
H         6.47390726881500    8.29295697434558   12.85270343430846
C         5.54483384503994    6.10649491704195   10.72544156983838
H         4.63442589288553    6.63256202525132   10.48255193323799
C         6.86406724720061    4.02731513539388   10.72145774243770
C         7.80135048849381    0.77667904811196   11.38124247563942
H         6.84833614657248    0.58323130182023   11.84876634519716
C         7.88377509162315    4.70638508288838   11.42639229653875
H         8.76604481065423    4.15921595911177   11.72101948130410
C         3.91052875553872    1.42735339599073    7.76755202802407
C         7.74891843271678    6.02743011431594   11.75051440161029
C         8.88087366568192   -0.06018840601637   11.59075614526677
H         8.76714276084505   -0.92774580492433   12.22250243679224
C         3.55778918010796    4.53989822419484    9.27333001198035
C         8.82960084374037    6.73052091177095   12.49817588584643
H         9.66291352000161    6.06246417959355   12.69482384333547
H         8.45347229639610    7.10547675604312   13.44876810768595
H         9.19358512376335    7.58631632960209   11.93163689528846
C         5.66354405998308    4.74561540650622   10.36238669265287
C         7.94781836813399    1.91252602897792   10.58484321247752
C         9.18186994910184    2.18806357203564    9.99304176689368
H         9.28523335447314    3.06204414302446    9.36648791473746
Cl        4.34690938475156    1.79352030461427   11.78764175319377
C        10.10496990617827    0.21307138498682   11.00008977837186
H        10.94365131055080   -0.44500975176487   11.16330707426821
C         2.34535410928232    4.04350892699806    9.75217801150155
H         2.35574261041435    3.27245140786404   10.50704273634745
C        10.24994147111450    1.33587724330547   10.20051377845720
H        11.20025805660913    1.55130249314544    9.73693298929462
C         5.87735431427993    0.29469447971150    8.31414748564485
C         7.24098051748757   -0.28557114636704    8.15457714724819
H         7.22338216676853   -1.01284975542627    7.34169613820331
H         7.56723261486603   -0.79252785976054    9.05844696656140
H         7.97519180371263    0.47741706282352    7.90566878953066
C         1.15854891665069    5.57170508728443    8.32885194746947
H         0.22718223750121    5.97506931346635    7.96426276576366
C         1.15520835232853    4.56757540780646    9.28466308423117
H         0.22003131327410    4.19335155094460    9.67205478150655
C         3.55976119613403    5.55276591138616    8.31250473835892
H         4.50208442665150    5.92276206593000    7.93531444945170
C         3.62834342407085    0.55312981057716    8.84211092213806
C         4.85742507362828   -0.15293462279318    9.18533228723125
C         4.91279324751809   -1.30519824724798   10.12861603296424
H         4.38331890967912   -2.15400352527598    9.69436454917358
H         4.42652589090205   -1.05551392201768   11.06993737479680
H         5.93749379411426   -1.60386868218333   10.33089530025215
C         6.00504306918406    1.96113381147230    6.31733325594823
H         7.07175645837505    2.07457145552194    6.49539522474692
H         5.58133461626093    2.93532399067100    6.08501153513975
H         5.87715725403601    1.32244108663438    5.44168268343073
C         2.36212642595733    6.05862169027267    7.84370036103650
H         2.36959139365865    6.83832651075401    7.09773692575430
C         5.32183400315358    1.33625075102065    7.48587831711821
C         2.92708121301765    2.19679276651080    6.95349983689646
H         2.66728113712287    1.61442402987057    6.06843667997618
H         3.33784237381324    3.14742453316494    6.62062673417489
H         2.01586662681279    2.39463496256029    7.51100274917203
C         2.29189357284947    0.20547477968171    9.40114914121737
H         1.53583344623176    0.92507862139850    9.10013806333644
H         2.32795018761703    0.16759643227144   10.48854432018447
H         1.99511837882190   -0.78073628773018    9.04256570602944
Ir        5.14474186097812    2.04293740833413    9.59827493278878

