32
CSD_code = RADLEO | q = 0 | S = 0 | Stoichiometry = C13H14N2NiO2 | MND = 4
Ni        8.66937837088530   -0.44560607372705    3.53174443895527
O         8.44271248985237    1.02177398460688    4.61208123832014
O         7.94381050244966    3.16374470124663    4.84100232505587
N         9.06163221644988   -1.55765239465025    5.20489716110021
N         8.96171144911632   -1.88015104941669    2.37353276685592
C         8.10864511410452    0.77056893198804    2.13800129815533
H         8.60942268540731    0.63278910222934    1.16817041068167
H         7.03944852287261    0.50481408942198    2.02540293883952
C         8.21957564671134    2.22780406162232    2.60995110365580
H         9.17902379635931    2.66341926022373    2.32204950865841
H         7.42485516137091    2.85786844832976    2.20202895197412
C         8.17309854572908    2.20000903828761    4.14226113116780
C         8.27722260077189   -2.54677835220580    5.62686788708009
H         7.57785917289796   -2.95700568967203    4.90738279223355
C         8.32863850602318   -3.05354859039241    6.91404495940475
H         7.66617935228213   -3.85271128668084    7.20813368450058
C         9.23621585526589   -2.51003713080985    7.80907256888425
H         9.29808290657164   -2.87617053287810    8.82313084410693
C        10.05762650053402   -1.48425769470055    7.37189640794275
H        10.77702992814436   -1.02742209133830    8.03278864459147
C         9.93489949545770   -1.03780227341187    6.06656506221489
H        10.54895621166940   -0.22489413957144    5.69940922664300
C         7.96999978395296   -2.67754031757025    1.96753328455792
H         6.96149671326436   -2.32568440149019    2.14728266202019
C         8.18904520076280   -3.88930816816639    1.33757256670024
H         7.35148164242587   -4.49543446064917    1.02982351295654
C         9.49199224146002   -4.30147057701739    1.10481947874745
H         9.69769588945306   -5.23854849752659    0.61062261945006
C        10.52377426950273   -3.47111951385372    1.51624204773348
H        11.55444235116446   -3.74308355754807    1.35146422715740
C        10.21639257688676   -2.27658527754485    2.14064759955973
H        11.00335430020058   -1.60407954713447    2.46007665009188

