42
CSD_code = RADLOY | q = 0 | S = 0 | Stoichiometry = C17H20N2NiO2 | MND = 4
Ni        1.97553920176282    8.22202051488596    5.45446598940127
O         1.52764724681520    6.90450870140794    4.25276845624961
O         1.05141831431041    6.43822574348169    2.13545815511473
N         2.39706171799047    9.54443428707338    6.67719168916763
N         1.93914429792666    6.74759133347199    6.85011977017074
C         1.99404517622118    9.35084205190436    3.88834308283198
C         1.67032200048062    8.68222075928843    2.76655719772250
C         1.38344964716949    7.22618425405749    2.99911377249834
C         2.29675168512330   10.83800763362314    3.85865061141165
H         2.64196959147441   11.11089271168454    2.85903608918929
H         3.09597366183759   11.09694691521166    4.55971003036247
C         1.04824131924891   11.65494068961191    4.19858585250472
H         1.26445556249315   12.72105382089378    4.15691059144478
H         0.69252672167761   11.41155564870900    5.19803420999200
H         0.25268331234422   11.43138566709795    3.49233229051014
C         1.60205206769102    9.19521638178301    1.35476956679842
H         0.88460774923772    8.56454882437305    0.82483766163064
H         1.25386076655666   10.22889645565646    1.32103727349960
C         2.96171333561416    9.07035484185309    0.66676120369842
H         2.89890063380133    9.41175333549690   -0.36481831561641
H         3.27766121478032    8.03042447389654    0.66990472053245
H         3.71525665071815    9.66090196089221    1.18491253286056
C         1.46361449781400   10.00819945003418    7.51290451408781
H         0.43969150150197    9.72134742367239    7.30499961153650
C         1.75630557681755   10.82571896809311    8.58865957697777
H         0.96273368092829   11.17912157853021    9.22807989384415
C         3.07522590382066   11.18407920496234    8.82347540082867
H         3.33675211993243   11.82555407635292    9.65092300646648
C         4.04702652455049   10.70034552394746    7.96141864783256
H         5.08691085378605   10.95136528083230    8.09991676399613
C         3.66677523986228    9.89326124598071    6.90453433649831
H         4.40466530299477    9.51821494820857    6.20517895133935
C         0.75791395635251    6.19464327010434    7.11811183575126
H        -0.11445544239357    6.82176775977018    6.97641699091977
C         0.62056391420568    4.88691661733196    7.55068784350019
H        -0.35958691409549    4.48240665384634    7.74829736218956
C         1.75835966359740    4.11208677371609    7.70579895939529
H         1.68742950443541    3.08378790790300    8.02765352685669
C         2.98917506029209    4.68549987061010    7.43126794069144
H         3.90231083670751    4.12033975569327    7.53366792675737
C         3.03081335540694    6.00205204731088    7.00515212626377
H         3.97939298817962    6.47698463676883    6.78127235225099

