116
CSD_code = RADPIX | q = 0 | S = 0 | Stoichiometry = C50H58ClN4O2Ta | MND = 6
Ta       -0.39384103069560    4.17701405708981    2.75075213549136
Cl       -1.78792385735673    5.77061177611539    3.68770365711775
O         1.21454170609388    5.27040910590872    2.65828813356580
O        -1.77696922651974    3.05342534935572    2.07174260794175
N         0.88820572971222    2.90239133715271    1.46759509860406
N         0.04785090392059    3.22170446186940    4.21661448608496
N         0.27923427833330    2.39190093505139    5.21422188230999
N        -0.77008124240952    5.41059638823450    0.62677233199242
C         2.36558373763553    4.86270611914076    3.14111750116468
C         3.21148024120306    5.71496608626012    3.89126948559242
C         4.30974396751420    5.16141861470022    4.52079904672527
C         4.64376957890906    3.80983586831185    4.42994062276482
C         3.89757272988570    3.02900106891593    3.57174819234027
C         2.78562807213568    3.53187187273427    2.88983992698147
C         2.17956373644091    2.73614899609699    1.82037821517150
C         3.00296425028112    1.86212644296237    1.10108076665636
C         2.47612809784506    1.10985530825252    0.07040265631190
C         1.15516159145129    1.30035218512298   -0.28288611877913
C         0.38648109371643    2.24544651458225    0.40385892021773
C        -0.98894883511478    2.46542916311044   -0.06049035085492
C        -1.25991159920224    2.35401684430866   -1.42809266086120
C        -2.54575717117203    2.42400710627251   -1.91984246287625
C        -3.58751630630263    2.48338622567698   -0.98984809977154
C        -3.38502032338588    2.60475228695541    0.36912342194599
C        -2.05074710249389    2.72228088761432    0.83772233823869
C         2.89750141277652    7.20595633734857    3.98135402358164
C         2.78258052958519    7.76908416542276    2.55636105093077
C         3.99454758257586    7.99444667055124    4.70562998173645
C         1.57959485657481    7.43543019301183    4.73174771695812
C         5.85118716783419    3.23552586318180    5.15761776715636
C         7.04167066955700    3.24412501449237    4.18702031070339
C         5.57674551908047    1.79765893361512    5.61600567503438
C         6.21318633776835    4.05996644549650    6.39761409851789
C        -2.87272320368910    2.38401304827089   -3.40495815428805
C        -3.76044210284959    3.58349840282291   -3.76549824006016
C        -3.61710883506194    1.07842663858376   -3.71714660877838
C        -1.61839006237141    2.44796401191843   -4.28133101905968
C        -4.53825515960594    2.60118181864533    1.36665765788877
C        -5.88298353863424    2.29056206804932    0.69867582437922
C        -4.27324153292566    1.51146417171332    2.41667985935570
C        -4.65896133975843    3.96362041881345    2.06067462331544
C         1.18257243013374    2.75449750625945    6.21608271242034
C         1.86927996239706    1.80159268899821    6.97141746832407
C         2.75598385816945    2.20702530014588    7.94994424804929
C         2.99001322500286    3.55428221837850    8.17755611783861
C         2.33725128646266    4.50016401148040    7.40219860108800
C         1.44039051316951    4.10996315646327    6.43010822549933
C        -0.42559411737910    1.17842953873769    5.24275031115183
C        -0.75553482213540    0.55544128785783    4.03776113823662
C        -1.48726648438555   -0.61573389243921    4.03885413072340
C        -1.90026904339912   -1.18432020864368    5.23313026951301
C        -1.58542831874304   -0.56173650954468    6.43104794045528
C        -0.86032826860909    0.61366218977837    6.44316242586871
C         0.15503673916869    5.42132277650134   -0.32371191791209
C        -0.11017930970627    5.80007015983047   -1.62783158837338
C        -1.40136469038515    6.18244249629278   -1.95674233212517
C        -2.36288620279131    6.19244295325572   -0.95963264851256
C        -1.99848912083321    5.80308268471912    0.31866879158516
H         4.93025313444992    5.79929762928659    5.12239642872804
H         4.14611177406277    1.98878228838672    3.44009551491780
H         4.04735676772278    1.78364457787845    1.35076815753505
H         3.08947896365938    0.39683476330683   -0.46017339453343
H         0.70857300706163    0.71838514732032   -1.07181873615375
H        -0.42313812305442    2.25390950982943   -2.09986011123279
H        -4.59713502923794    2.44196228582182   -1.35999960030974
H         3.70353929778895    7.58975098468937    2.00335708657680
H         2.60038102464536    8.84143768858567    2.59014446214336
H         1.95916897441964    7.29900653103603    2.02690451378229
H         4.07935865421246    7.68996650477664    5.74588630507229
H         3.74191992130813    9.05285965670702    4.68905678493251
H         4.95783365267107    7.87080732624493    4.21543231435199
H         0.75851943386473    6.90591124590588    4.25539457329662
H         1.33970922018391    8.49719224023811    4.74265437996853
H         1.66660564722361    7.09271242269254    5.75984203911320
H         6.82441714720975    2.64004423524432    3.30909526539795
H         7.92919384277100    2.84359432251472    4.67258905296074
H         7.25447366630574    4.25864665583994    3.85704198153175
H         4.64322675536272    1.75483287563581    6.17108134055126
H         6.38256224869839    1.45423412973679    6.26144149531991
H         5.51585510431519    1.11167086723322    4.77586208976239
H         6.60756580812018    5.03630058494180    6.12851055583243
H         6.98116848213027    3.54413471567284    6.97049021952645
H         5.33842120560232    4.18906055731428    7.02928450354582
H        -3.97930700557002    3.58032992503850   -4.83142571576079
H        -3.25180218840269    4.51269316333302   -3.51845256827505
H        -4.70373850217016    3.55813025685872   -3.22790781219373
H        -4.54812520954743    1.01530575493785   -3.16063471489014
H        -3.00225170685943    0.22202316179760   -3.44884784635605
H        -3.84785480862167    1.02023733126806   -4.77885700681793
H        -1.90834969708545    2.47707776784570   -5.32977490403161
H        -0.99051995088070    1.57250398873781   -4.13462813786477
H        -1.03820743879953    3.34260306614274   -4.06473427434276
H        -5.85090720108902    1.33804716359037    0.17413430334977
H        -6.17369504708441    3.07494929845212    0.00292268193294
H        -6.65285689088337    2.22623269493328    1.46455637952344
H        -5.09792962694689    1.46809462605474    3.12460461623478
H        -3.36122537664221    1.71667716641166    2.97057349786647
H        -4.17792206667399    0.53949615013776    1.93570404735378
H        -4.84891666957469    4.74689814461362    1.32797748931457
H        -3.75699964187852    4.20119785818028    2.61913955227359
H        -5.48985171061753    3.94593943823404    2.76297731457185
H         1.71429652207200    0.74977044511385    6.78409421411284
H         3.27528997643965    1.46362063718107    8.53809091226963
H         3.67577003282041    3.86121128395240    8.95343966847618
H         2.52316301943250    5.55119877529884    7.56890496801621
H         0.90994402833077    4.83062679580391    5.82571887932261
H        -0.42695539202134    1.00602247951887    3.11266081254210
H        -1.73476027994042   -1.09085169196089    3.10064647018302
H        -2.47020784253317   -2.10121820639568    5.23123648733480
H        -1.92016574445101   -0.98963918633641    7.36488778678680
H        -0.64535193190601    1.10918002839867    7.37761350551460
H         1.15055987837516    5.12263301911473   -0.02057462179652
H         0.67645481719044    5.79288513788913   -2.36617815115283
H        -1.64570353626722    6.48106978548983   -2.96588011673962
H        -3.37705612782794    6.49690072805793   -1.16415769108262
H        -2.70402621929792    5.82056570363751    1.13761255640003

