89
CSD_code = RADQIZ | q = 0 | S = 0 | Stoichiometry = C35H50OP2Pt | MND = 4
C        -4.02905439622687    9.21244247587876    5.27327147934498
C        -5.20855963216099    8.69270765272002    5.88602718034650
C        -5.89877907548623    9.41648752799179    6.85091448333648
H        -6.79709114563143    8.96719895992642    7.24702765491884
C        -5.47944682594453   10.66101699220183    7.29247858219793
C        -4.25367730451063   11.10795823326829    6.81130423014379
H        -3.82664682489336   12.02608963537481    7.19233740714334
C        -3.53969720804352   10.43103350348313    5.83760069423763
C        -5.58515830474283    7.28812307880518    5.66269721998019
C        -5.82922102323536    6.74272258582114    4.39865049460621
C        -6.11395764948516    5.38390221623483    4.28021898103432
H        -6.29230149282520    4.94894318733441    3.30797146009438
C        -6.17191021480340    4.57033364161618    5.39521991814263
H        -6.39066060144934    3.51788874402145    5.28485247322672
C        -5.95282398574553    5.11149295854558    6.65220477278671
H        -6.00292249267130    4.48265920064843    7.52947902790779
C        -5.65634493982493    6.45295735276363    6.77863898510487
H        -5.46050006101459    6.87419548275499    7.75451308228024
C        -2.16137797227692   10.85529122651844    5.53655103988516
C        -1.70738429930904   11.15708917095803    4.24771132370860
C        -0.36408183321749   11.47259699584966    4.05540061470093
H         0.00852845006684   11.69554819823159    3.06709044262994
C         0.51848911178763   11.50826045447221    5.11817217747335
H         1.55730532864740   11.75140176426954    4.94718918600180
C         0.06463015702408   11.23959194825930    6.39922213653790
H         0.74686535808122   11.27657824445151    7.23621947523469
C        -1.26058434456249   10.91032999304686    6.59959294250096
H        -1.61736101073664   10.67589362958193    7.59262293696100
C        -7.75721310480393    8.02950356882291    2.74009957567457
H        -7.88371437274514    8.70134182469678    1.88396070093481
C        -8.53757173712452    6.74815867674112    2.47921348449234
H        -8.42157187704627    6.04869993767289    3.30445885719003
H        -8.22166397639061    6.26531247509527    1.55720291006793
H        -9.59709301555785    6.98411035591265    2.38563937591000
C        -8.27595896905780    8.73272775300137    3.99321225227053
H        -9.29838757269911    9.07767602987877    3.84741332414668
H        -7.64879162865209    9.59134671021541    4.23578959974289
H        -8.25975926076262    8.05186111549692    4.84297028652580
C        -5.32979266796474    6.76378820573848    1.55197233078055
H        -6.01177672005548    5.92011697553398    1.40256546235075
C        -5.30086093191316    7.60700163064973    0.28140927868727
H        -4.67648292608389    8.48763950261131    0.44476730822442
H        -6.30149882613245    7.93854177929277    0.00923936150234
H        -4.89085843124399    7.03546988672698   -0.54997053835015
C        -3.93392594380158    6.25137147638007    1.90430872719467
H        -3.42190926606876    5.88637520967372    1.01514464374797
H        -3.98271367391569    5.44295150213190    2.63027775871317
H        -3.34312199795535    7.05236325048389    2.34886446724243
C        -3.29770951395082   13.09113249667231    2.87369418030242
H        -3.93177266845256   13.25150672132657    1.99471351680613
C        -4.11247053670866   13.41072736639286    4.12353771779547
H        -3.48504426708120   13.34152014190648    5.01007981924232
H        -4.93527780820108   12.70254956321357    4.23012900580171
H        -4.52317717181143   14.41781336459227    4.06964718020876
C        -2.07379215106989   13.99197085563893    2.76915571724833
H        -2.38756322134911   15.03507158106727    2.78367211690706
H        -1.52820037420259   13.81983144831277    1.84406868697870
H        -1.40047004819206   13.83007835247531    3.60874010057861
C        -1.92708908445684   10.96597881989281    1.35140529319840
H        -1.05114498293714   11.62161524026146    1.32044809255067
C        -2.78785260848723   11.23445430608120    0.12129628989181
H        -2.26366274983854   10.91923753141885   -0.77971865307897
H        -3.02257216943176   12.29226988020352    0.02425753299502
H        -3.72101266817773   10.67667178816933    0.19365095534545
C        -1.48685584287517    9.50635201314542    1.39315198049309
H        -2.36956151879853    8.87124463055325    1.48611619486065
H        -0.84647504212330    9.31509754497750    2.25245091518579
H        -0.95004840092573    9.23193997542915    0.48614419905118
C        -6.25760700950837   11.50733840270239    8.28666890459361
C        -6.55717801109519   12.87149513721494    7.64863418195041
H        -5.64091585616407   13.39393997647467    7.38738285320673
H        -7.12268622600622   13.49611072852908    8.33780999363026
H        -7.14308389210052   12.73971077605013    6.74113014495957
C        -7.58956954190019   10.86611296050884    8.68524526024381
H        -8.21810641375323   10.70025607825848    7.81308354405057
H        -8.12303290211234   11.52684153188921    9.36642680479289
H        -7.43097211272713    9.91782045489900    9.19372985270168
C        -5.42024062671932   11.70370467574031    9.55814023756946
H        -5.18011712731010   10.73961455555351   10.00222876611146
H        -5.97312591980703   12.29243858058944   10.28795218017461
H        -4.48884460717379   12.21956767968264    9.34056997656055
C        -5.97179010107090   10.89515589027992    1.91159460429003
H        -6.44232596249866   10.35503308358891    1.08704724190633
H        -5.54594706364697   11.80785605278540    1.49296634831125
H        -6.76807881844645   11.19743239973046    2.60096816461283
O        -3.38799400526869    8.57954540809326    4.33780076476260
P        -5.90866676119055    7.83947947218103    2.95328166988958
P        -2.91921816485246   11.26160851545177    2.89403989883535
Pt       -4.63345491416212    9.74538109586917    2.98973819496996

