82
CSD_code = RADQOF | q = 0 | S = 0 | Stoichiometry = C32H44ClNNiOP2 | MND = 4
Ni        6.16997499948299    9.07469262171962    3.09877372447050
P         6.23777678851344    6.99219272047010    3.78932136244562
Cl        8.21976085333498    9.19254345245449    2.77046614623929
P         5.79463006837309   10.90061404498880    1.92076448609745
O         4.36674559834314    9.04095220039077    3.57903899691290
C         4.31788892471383   11.84691315156678    2.42045457954918
C         7.33965693187314   12.62674649089590    3.41400376737420
H         8.21419292863677   13.26978727263368    3.49884359453037
H         7.50518276344901   11.74061377372080    4.02883518645304
H         6.47542071859407   13.16316623594972    3.80325080415358
C         5.55326487699678   10.56799612714274    0.10461615425436
H         5.27332176825817   11.49052695246721   -0.41287964960154
C         5.37277716160019    9.60478278347233    7.04322610766295
H         5.61396994233962    9.00230618151706    7.90451303494841
C         4.94619320822150    8.93960762914616    5.90378344450231
C         3.58939939612298   12.61195118358521    1.51404641448014
H         3.84297313649022   12.59957152580105    0.46533413900750
C         3.96090984128107   11.87493913442349    3.77456352150586
C         8.14506659972489    7.25354937981889    5.73226977886122
H         7.43612312851406    7.03172272617916    6.52958845459836
H         8.06207979246624    8.31151222539353    5.47899511850763
H         9.15236479717295    7.06989618871145    6.10172230522447
C         5.03291365350406   11.70392957077616    5.98123739911369
H         4.99369782917578   12.78166867451112    5.99794494981474
C         6.34601211168690   13.03467254184898    8.10387637419150
H         7.07135131172650   13.20407064114655    7.29818519749475
H         6.78586010816379   13.36957879895685    9.04061724022467
H         5.46418544782191   13.64976352598014    7.91343004859374
C         4.61600815019190   11.06917957234644    4.82299959920024
C         2.89455064732830   12.67849888950893    4.17642129773736
H         2.61661788177647   12.68815788198764    5.22085636690365
C         3.80381285182647    7.11392352013280    7.06572530031702
H         3.44897401669803    7.86715173414553    7.75470182722047
C         2.18531256746805   13.43767471918751    3.26726721237666
H         1.36159674512776   14.05222179174540    3.60029462809627
C         7.11302405039426   12.22351268354717    1.95910536976289
H         8.02016696679127   11.72663086738669    1.59665558771471
C         3.42043434741758    5.79811718012278    7.22804337760076
H         2.77850866215711    5.51932393640042    8.05107542755445
C         4.67359644738031    5.20932619904181    5.27743976739932
H         5.00367546497271    4.45274798181669    4.58182064588449
C         5.06974479859041    6.53302193684742    5.10508543355236
C         3.85307990200427    4.84005305553496    6.32598178278227
H         3.55112656447724    3.80872609327311    6.43809779574380
C         6.85200387570821   10.03802578026128   -0.49723002323834
H         7.27595875052781    9.25837394117638    0.13488902280260
H         7.59242424982606   10.82841088860484   -0.59505257837734
H         6.66643965619219    9.61937770000639   -1.48528326792917
C         4.36600411824540    5.98650356348317    2.03427672810603
H         4.11679831752111    7.04574734794256    1.97529084753753
H         3.71910665237029    5.53853282467451    2.78517921818248
H         4.15482734691764    5.52075315885634    1.07263746273602
C         5.83846546089009    5.81727377075215    2.40145619161203
H         6.03333464788856    4.78464734828668    2.70823895151339
C         4.42669907565669    9.54713342225149   -0.01883126650945
H         4.24974093395865    9.28320624056580   -1.06054160559159
H         3.50307130147635    9.93539878563181    0.40792196823121
H         4.69515577998531    8.64421562768614    0.53043294565409
C         2.52953146703841   13.39750777066493    1.92697437728287
H         1.97571246373096   13.97782900269675    1.20322287139012
C         6.74639121538938    6.17077475080703    1.22741693147887
H         6.50243384983515    5.57058352903176    0.35215713295991
H         7.79334205914682    6.01093717793598    1.47852459492805
H         6.61855575064936    7.22582888528680    0.97451705351220
C         7.85926499342784    6.39306993667401    4.50240267425110
H         8.60961210158456    6.62611968384091    3.73800900416438
C         6.65158365094004   10.86672540403969    9.22797230308471
H         5.96055677160586   10.15594906120079    9.68509933531461
H         7.01096851352107   11.52876427996662   10.01276135461164
H         7.50662618984844   10.31173888063325    8.82136975008532
C         7.93070612672996    4.91294068474122    4.85058040317593
H         8.91551748063195    4.68964784010996    5.25895239730247
H         7.78415813133388    4.28400715442718    3.97568453901072
H         7.18860700975656    4.65375664486113    5.60330542576104
C         4.63020927679352    7.50420562699811    6.01102116560066
C         5.50015748572243   10.99503264197021    7.09195966511360
N         5.96935663619811   11.64523506882905    8.22135030451549
C         6.81209514868821   13.44354174146537    1.09845178485983
H         5.88551809235732   13.92120220142249    1.41285309939780
H         6.73371134318864   13.18509757139325    0.04531166514816
H         7.61838915009819   14.16803931485988    1.20523636636051
C         4.66124017361654    9.65272894735836    4.70678710454656

