117
CSD_code = RADSUK | q = 0 | S = 0 | Stoichiometry = C51H52N4O9Pd | MND = 4
Pd        3.98351929309087   16.24841673928292    1.63619982132955
N         3.91936378355328   14.22414826638855    1.35842177601334
N         2.26278036269696   16.40313431649790    0.65665207259106
N         3.86834806513675   18.15458351311610    2.22976199276791
N         5.93301196691347   16.29115533216442    2.12958646185097
C         4.69458837808903   13.30928478133238    1.96063598464288
C         5.23502827934851   13.56606086099557    3.29168076799802
C         4.88338869724292   14.98530211450540    5.16257476882145
C         4.14218517087016   16.25309069377239    5.48746538982298
C         2.98229403113268   16.59423207084499    4.79806811802937
C         2.28509015578370   17.74036784823890    5.14501257578053
C         2.73743313279066   18.54759628844088    6.17428653651666
C         3.89938394481200   18.21806943352627    6.85106311260564
C         4.60144559040711   17.07718853243615    6.50652239936527
C         4.73252234109751   12.10044123292494    1.20801626142107
C         5.43791379362766   10.85569532944254    1.61337313749632
C         3.94090436670097   12.32170246306810    0.10002054247667
C         3.60633383056264   11.36413169144557   -0.99057176489475
C         2.29875307209867   10.61640544287550   -0.69200473367396
C         1.79907467058363    9.89064294822369   -1.91909214219550
C         0.67505657014031    7.97274258133222   -2.66470169166345
C         3.43660038253525   13.65824473655954    0.21795578444166
C         2.51459472209671   14.30148513270464   -0.60462143789078
C         1.95588750249209   15.54780291446951   -0.38498127553608
C         0.95828992908361   16.16515483115914   -1.21592135069584
C         0.37284487599936   15.54878943881471   -2.43749207821650
C         0.68960500452490   17.39240181760730   -0.66460026627655
C        -0.22756055157321   18.44389027283911   -1.19321803316960
C         0.51188934776372   19.35626740480257   -2.17474394813889
C         1.54332364636234   17.51203745169631    0.48553359778397
C         1.59901443343409   18.70159775859420    1.34744399704985
C         2.82666020301366   18.98445885050614    2.09794869273891
C         3.03418266977806   20.18025669789395    2.86804414529848
C         2.15010188792539   21.38217512084274    2.90028285306027
C         1.07725994058560   21.27361419356906    3.98428566557253
C         4.21946943745112   20.00424405984662    3.53739457775345
C         4.89528910285259   20.92830934621280    4.48773504135484
C         4.72814229711981   18.71898731632195    3.14778066920219
C         5.88809833000823   18.14362012421226    3.64702495976554
C         6.47444659646929   16.97606977716664    3.17067193516894
C         7.76963743920246   16.42940058662589    3.46343848549477
C         8.66891076966538   16.91945179583825    4.54654405283560
C         9.54229285091557   18.08746928123348    4.05904303925765
C        10.14415786043064   18.82655083961281    5.23139980551404
C        12.10565368349562   19.81293447953066    6.05503570164209
C         8.00543793054367   15.44629871389768    2.52534391008394
C         9.18996530004703   14.56002692283912    2.38574926363295
C         6.84320222513266   15.41125412841917    1.69686666472168
C         6.59419634795015   14.81506894862583    0.38851442091690
C         7.26183648527650   13.26039052128897   -1.24548197390997
C         7.52075763825180   11.78032892515709   -1.19222969717392
C         8.34194030090229   11.23180668801197   -0.21755778612528
C         8.57747702655970    9.86799340985833   -0.19106715242483
C         8.00073349911052    9.04299502831638   -1.14128704779395
C         7.18656889917078    9.58732073930665   -2.12096676435292
C         6.94627515281288   10.94967148780667   -2.14636499879599
O         0.63200323387893   19.45121331151862    1.43394467459694
O         1.21574845085415    8.73201437333745   -1.59125712749015
O         1.89168827342937   10.29181018900220   -3.04911608525730
O         9.54725669092640   19.14300203041167    6.22682847178039
O        11.43605304452106   19.09949542898473    5.02323347494849
O         5.70640772032766   15.23058946137776   -0.33884917323721
O         4.56432560259682   14.60434800513523    3.83350420330733
O         6.09920137889402   12.95288281069295    3.87450203543451
O         7.45145175178293   13.85508332214035    0.03602709140880
H         5.96803967618606   15.11410639565556    5.26402621491005
H         4.57792583188307   14.17735994671334    5.84443986715707
H         2.60680293424625   15.95010333911196    4.00237717785817
H         1.38196776713221   17.99964710770431    4.61324398966750
H         2.18392760083221   19.43152798062112    6.45185568431469
H         4.25801805820999   18.84688903587717    7.65298619555753
H         5.50624753451681   16.81676316561851    7.03666429562181
H         4.76721996824170   10.21562039847403    2.18869990588108
H         5.77588063122882   10.29925356863974    0.74198209635177
H         6.29025053670707   11.09878992953120    2.24116960484735
H         4.41503774702812   10.63995763533847   -1.10544599789249
H         3.48706316169548   11.89368551958820   -1.93806579591247
H         1.52721583056241   11.33592287039705   -0.40345119591400
H         2.42107314174097    9.90540741717741    0.12405186373525
H         0.26820529369085    7.06713897430015   -2.22279910834692
H        -0.10931031914518    8.53834519650131   -3.17156120982882
H         1.45634920105379    7.73096159054807   -3.38794745345812
H         2.18070122633007   13.76811560851072   -1.48440430516273
H        -0.41356145962991   16.17876643475008   -2.84342981267538
H         1.13857619743340   15.42025591619895   -3.20258403765993
H        -0.04757153882296   14.56856112504673   -2.21386656425970
H        -0.61092610289336   19.04082804843664   -0.36721102200487
H        -1.07160223524482   17.97084192073483   -1.70002759133352
H        -0.16400680076743   20.10958914694885   -2.57254405987479
H         1.33269935097742   19.86061832948885   -1.66971201586484
H         0.91954426942477   18.77933801868833   -3.00248605521081
H         1.65665623671119   21.49194376724139    1.93457374766697
H         2.76122362376708   22.27028738833538    3.07989726879196
H         0.47127826700251   22.17635463215446    4.00186253828651
H         0.42882549081989   20.42810831265508    3.77382778131083
H         1.53403835300661   21.13909938343297    4.96183510713717
H         4.30671739455899   21.83041522689332    4.62672537548665
H         5.02297770984701   20.44654025666827    5.45657494075354
H         5.88110599819854   21.21030768223395    4.11764654579412
H         6.41276234484690   18.69394780898253    4.41562334391597
H         9.30957371445438   16.10875520755868    4.89745189844684
H         8.07324498433862   17.27214211443036    5.39146002864678
H         8.91594094271722   18.79712603752658    3.51207815738629
H        10.33629862317758   17.74722290556815    3.39572211133997
H        13.10924493893852   20.01009677482142    5.68743188522896
H        11.58301990267832   20.74706332880480    6.27018611958510
H        12.14206241266368   19.21264081265500    6.96652867033214
H        10.02433331478790   14.92781750791377    2.97730541420746
H         8.93044675442801   13.55779331372282    2.72848595717294
H         9.49177406260903   14.49036606905161    1.34302882832349
H         7.96002283257586   13.73814545310696   -1.94749900019281
H         6.24059616916925   13.46693393997361   -1.58495368866010
H         8.78285103551767   11.87742638989680    0.52502199031565
H         9.21277591263073    9.44834677587827    0.57473799517153
H         8.18401153973191    7.97896402528332   -1.11936131579416
H         6.73312385586640    8.94911856732751   -2.86513767142205
H         6.30998727108619   11.37274054159733   -2.91000710513684

