117
CSD_code = RADTAR | q = 0 | S = 0 | Stoichiometry = C51H52N4NiO9 | MND = 4
Ni        1.69607703007527    3.21762681162474    4.29573600216423
N         0.95384636058790    2.34092398447017    5.78126838543226
N         0.03837177087758    4.07283050626290    3.99780191034095
N         2.62881047326268    4.38824028120437    3.21296810425307
N         3.05843821021127    1.87033587552644    3.98910357639725
C         1.71944197002195    1.79773172452247    6.74025623540583
C         3.04366590084981    2.38101020460632    6.85676102558687
C         5.19326434732867    2.30003598087890    7.82006920349992
H         5.32785384247941    2.66880686141273    8.84538570363119
H         5.29891764018753    3.14266029446442    7.12684127358856
C         6.21743418294040    1.23594110618567    7.52470717187057
C         7.52790202665918    1.60912008764229    7.25272915164095
H         7.78970622694265    2.65719319630832    7.22976190199039
C         8.49378730469917    0.64764456231407    7.01792057624452
H         9.51006574160466    0.94665646185186    6.80846424818833
C         8.15875334300386   -0.69616787357704    7.05068119389427
H         8.91337462482958   -1.44736040001660    6.87009053183570
C         6.85329124679526   -1.07160599930543    7.31665070420014
H         6.58901981359563   -2.11893866737396    7.34915922493394
C         5.88504338350105   -0.11034873700419    7.55260667066216
H         4.86603021142982   -0.39952636805730    7.75793042574464
C         0.96374122117939    0.88127538849758    7.51897594800546
C         1.47899080135105    0.04974114157635    8.63970340161049
H         0.72251951075141   -0.06803547417080    9.41375796238738
H         1.74616274301859   -0.94308954711564    8.27531270313779
H         2.36596868229714    0.50506843704693    9.07098856956125
C        -0.32288335358606    0.92350054498190    7.01242865323352
C        -1.48592625533038    0.10283246379737    7.45826198735281
H        -2.41765735496029    0.64135368611816    7.27668773348479
H        -1.40021440968808   -0.08642619119111    8.52953807071561
C        -1.53713807843766   -1.24179058868314    6.71323120275719
H        -0.53937879145332   -1.53797418642699    6.37894885144168
H        -1.91583324128053   -2.03723277211687    7.35718000588024
C        -2.41447871003994   -1.19829236442348    5.48712384752134
C        -3.24979580381832   -2.49938729143741    3.72196039502957
H        -3.36259181861156   -3.56138583428941    3.51861091673659
H        -4.22536072797697   -2.02773969952971    3.86134380903532
H        -2.73237374667206   -2.00863597982216    2.89422770937352
C        -0.31005110934356    1.87337826539177    5.94306789200973
C        -1.35514281269078    2.45196952011149    5.22569577269354
H        -2.36022179115163    2.09785819194282    5.39900553220861
C        -1.17436455079399    3.50187150007493    4.34033332704668
C        -2.22752765480766    4.19644139507107    3.65602571804715
C        -3.67480790876347    3.88180023208487    3.78872806607716
H        -4.23627760008881    4.32105266640702    2.96855515899372
H        -3.83800032861764    2.80647556375628    3.78905169563450
H        -4.06612386138032    4.28580601793240    4.72350039440557
C        -1.63164095092569    5.17860710825789    2.90462091790809
C        -2.30471019683901    6.18828099727014    2.03985946563832
H        -3.25186451137632    5.78041341520522    1.67936494566583
H        -1.67096610558187    6.41232646199010    1.18213896328106
C        -2.56267208529694    7.48416132476891    2.81117155792925
H        -3.09686624266651    8.19542868644434    2.18584270414559
H        -3.15381673269502    7.28791741021612    3.70339259891395
H        -1.61588235593090    7.92747769196179    3.10717982072008
C        -0.22160267884644    5.06696001674514    3.14285825671455
C         0.79556471563362    5.91562563038861    2.51681149886586
C         2.20330553322993    5.54669871653735    2.69687800689185
C         3.31423109463589    6.37845685545977    2.33367447477752
C         3.23909568647769    7.72305886748451    1.69367080746213
H         4.13325775283340    8.29628827064124    1.94805869716691
H         2.36500886610378    8.25585304979393    2.06855794931256
C         3.12058779888118    7.59775480338438    0.17329266682720
H         3.12474090778797    8.58270313581358   -0.28716477587862
H         3.94861002606618    7.01784790704465   -0.23004261807451
H         2.18713000371190    7.10258868769262   -0.07983418140781
C         4.44748540653604    5.67604806095925    2.66531611176215
C         5.87290181092163    6.05755284430517    2.47855434973129
H         5.95329569033078    6.97855074257986    1.90838786617118
H         6.35785802760889    6.20378531844422    3.44416944964202
H         6.40957805182618    5.27080922616942    1.94894113239897
C         4.01156803687531    4.42602308764680    3.21812116454093
C         4.85096497491396    3.39197669585536    3.60073228586076
H         5.91468510140037    3.57346037733109    3.56283462673280
C         4.39402786400696    2.11856903841219    3.92798133108860
C         5.10858823251916    0.89123076373265    4.09461885953465
C         6.57938449568740    0.72479607649241    3.92678521982999
H         6.93429163913972   -0.11315354538563    4.52839993581592
H         7.10144683165181    1.62647935477450    4.25083043327031
C         6.92318490091611    0.44923348037128    2.44523273202499
H         6.47727409001992   -0.49409155792942    2.13371520973456
H         8.00554290068825    0.41378136332898    2.32314376491596
C         6.36116726073532    1.56269665057400    1.59312724847706
C         4.43144620461861    2.19712992189772    0.37761200949666
H         4.02915315664766    1.71638500070818   -0.51259778523284
H         3.61666769396820    2.55594487852973    1.00934240980682
H         5.08016099800049    3.03077720577568    0.10358507361264
C         4.15719373522478   -0.09811160416275    4.25935201425923
C         4.36695574538906   -1.56209440965455    4.42074316942313
H         5.11913894882774   -1.75551161569364    5.18395440387412
H         3.43305378520148   -2.04022288736563    4.70203068114139
H         4.71356581841939   -2.00401162327972    3.48598865204322
C         2.89661368800066    0.55551415704184    4.18349790513676
C         1.55679124158179   -0.00579738355985    4.02438047499133
C        -0.47220820747012    0.49530550676894    2.89677672207458
H        -1.17811640017008    0.41570769392016    3.73108029714791
H        -0.37150395074514   -0.50132716274769    2.44109282954844
C        -0.97443118845406    1.49598215218094    1.89195157532755
C        -2.32295078478381    1.50874203393917    1.55910369710611
H        -2.99462697076490    0.81013565812509    2.03719455917779
C        -2.80383843171098    2.41577846168714    0.63307694274495
H        -3.85374836816761    2.41874718850964    0.37952587127015
C        -1.94402607328083    3.32404880934740    0.03846630718984
H        -2.32069334050812    4.03697805950639   -0.67943585334068
C        -0.60150482050128    3.31997986401795    0.37308811775928
H         0.07161094225797    4.03321746952757   -0.07939561147625
C        -0.11526619602393    2.40500591480437    1.29062865058966
H         0.93306616513985    2.40742760623506    1.55777610813466
O         0.48157784387556    6.89996861577647    1.85611477025780
O        -2.47841661820724   -2.40009304406505    4.91027611884267
O        -2.99847554606146   -0.23037849682582    5.06596029746861
O         6.89306771110814    2.62793312825492    1.40985130093082
O         5.17145441309720    1.21920143914629    1.09739458918390
O         1.16140590659239   -1.10561608679729    4.33927438472862
O         3.86735502351545    1.79028975066894    7.72561277141526
O         3.34117783160421    3.37110130054478    6.20399441642524
O         0.79996550181350    0.90002050297762    3.37294010466459

