73
CSD_code = RADTUL | q = 0 | S = 0 | Stoichiometry = C31H36N4OPd | MND = 4
Pd       -0.06909532708998    3.84277471884041    2.93512655711067
N        -1.07509506655694    5.21981752159710    1.83009698015697
N         1.22226638360026    2.44150623055265    3.52808411878133
C        -2.43757795456627    5.17224497677221    1.61559944880988
C        -2.85300274132876    6.41055992889710    1.02076109183348
C        -4.25161526151572    6.74902306101698    0.64274487570124
H        -4.94362277076020    6.46027201251802    1.43203906198669
H        -4.53852606783601    6.22213163238711   -0.26818323125831
H        -4.35453664567784    7.81602544733038    0.46219808907458
C        -1.70492274965872    7.15011532865657    0.83412897148119
C        -1.54255040940163    8.49408607742346    0.21074397778053
H        -0.87792980557542    9.11538826580172    0.80962888403895
H        -2.50109334829233    8.99766636588351    0.11638765750664
H        -1.10714138268286    8.40262541524002   -0.78511185827510
C        -0.62794506081575    6.36636737026402    1.33964334306133
C         0.82248783636036    6.69604194206600    1.26556382690546
H         1.41314643852360    5.80856771669516    1.51974547347824
H         1.08257035851581    7.50653528767191    1.94705001752323
H         1.07653819257147    7.01365799780298    0.25475159402233
C         2.54083393027782    2.75489204168799    3.76096677872298
C        -3.17683290887681    4.01817724400196    1.78428810391719
H        -4.23806961586621    4.07745934059643    1.58493361546948
C         3.32787197139408    1.56415385145642    3.65899857150339
C         4.80381983939234    1.50396746055990    3.85254809408010
H         5.31135870366319    2.13868489135984    3.12590681398313
H         5.16515175204193    0.48755692949265    3.72713815592265
H         5.07636239771244    1.84659974064015    4.85093522335110
C         2.46119133566079    0.54062081416551    3.34877585067472
C         2.80984493041090   -0.88845522946401    3.09918554561953
H         2.01711466183440   -1.52839585146406    3.48432216916144
H         3.73857602664829   -1.13376496205802    3.61939185368976
C         2.97613646123376   -1.15205939765836    1.60117050253143
H         3.26986965396649   -2.18503298874256    1.42966605306071
H         3.73570317364674   -0.49680056907855    1.17811626792675
H         2.03535061414056   -0.97148005744351    1.08747794966818
C         1.15941310551432    1.12977554314862    3.25118239475242
C        -0.06894438198016    0.38812667149985    2.93473078063130
O        -0.06876682422731   -0.83912048937472    2.93397584653758
C        -2.67908485298301    2.75493105141334    2.10966768890710
N        -1.36044583608136    2.44150763321897    2.34216660177135
N         0.93690056884009    5.21978042939675    4.04017642321883
C         2.29934655203819    5.17221308133287    4.25490275443398
C         2.71463491691988    6.41048749143642    4.84991316709443
C         4.11311485707449    6.74881992621078    5.22850556417349
H         4.80535220787704    6.46102205185741    4.43905638391779
H         4.39992060473816    6.22100486235860    6.13893362332674
H         4.21581459483479    7.81564425848917    5.41023950607295
C         1.56652013382671    7.15002826137910    5.03634367385878
C         1.40414817441088    8.49401201145405    5.65976094755056
H         0.73773957215107    9.11450372719398    5.06206738272093
H         2.36243587186867    8.99847112408227    5.75196841248035
H         0.97092632042596    8.40237016083240    6.65653118410018
C         0.48962822012790    6.36626258386571    4.53064515157291
C        -0.96087588312119    6.69561545709781    4.60479623017291
H        -1.55130358153221    5.80797766797924    4.35059003147065
H        -1.22126206820953    7.50606937389100    3.92339341819111
H        -1.21493153607217    7.01304191942545    5.61566236181931
C         3.03859012191037    4.01813117589974    4.08640122102399
C        -1.29754128437837    1.12981587665804    2.61915718958764
C        -2.59937443218787    0.54070310313768    2.52215804449766
C        -3.46611310788169    1.56421987370462    2.21204161120141
C        -4.94215995379211    1.50394585587380    2.01912252258354
H        -5.44954874664998    2.13566377690556    2.74838930612170
H        -5.30280719295705    0.48692850725129    2.14102614990168
H        -5.21551862512536    1.85008788401407    1.02221060193240
C        -2.94793446697061   -0.88834708521928    2.77207874022880
H        -2.15489699791107   -1.52825584513536    2.38753864118907
H        -3.87636302513178   -1.13399372213462    2.25149208153810
C        -3.11500003292917   -1.15155573108533    4.27007769388400
H        -3.40817165800966   -2.18467137537762    4.44170324259707
H        -3.87526962919207   -0.49667717496045    4.69245360320431
H        -2.17468207057599   -0.97021197551278    4.78436317780129
H         4.09977282025459    4.07734150232111    4.28605621493085

