117
CSD_code = RADVUN | q = 0 | S = 0 | Stoichiometry = C51H52N4O9Pd | MND = 4
Pd        1.12542134700980    0.98111420642848    2.65996844071787
N         2.18847921758178   -0.13946525987863    4.01322274859042
N         0.12054666892300   -0.71585590266262    2.32724969658564
N        -0.31785021230018    2.09612874032323    1.83740343509866
N         2.29565518699181    2.64752011729430    2.57455455117604
C         2.90947485879326    0.37750860784166    5.04099621276038
C         2.55279886529887    1.70211177198121    5.49143989980658
C         3.15349191605464    3.52817037399943    6.87999186547332
H         2.39895499156447    4.00714825927371    6.24823939146704
H         2.74841604875292    3.43944915533323    7.89726865303832
C         4.41454736966305    4.34816007485447    6.90316516971524
C         4.34195078076812    5.69183136502046    7.25444286444091
H         3.38425263307300    6.12210814691734    7.51097442104701
C         5.48523509079465    6.46977342226618    7.28059734993995
H         5.41911933053669    7.51270361118777    7.55358651638064
C         6.71304204373525    5.91408286607176    6.95760625495086
H         7.60480251531599    6.52261608954968    6.97840386903043
C         6.79097218887690    4.57633507574286    6.61236969636773
H         7.74511488562858    4.13658557205946    6.36065145963453
C         5.64667897945141    3.79600654589370    6.58584250829632
H         5.70155814776082    2.75224263982148    6.31929797096373
C         3.76819172519813   -0.60800377841855    5.57924222491941
C         4.69930848756491   -0.47708529605021    6.73493530622752
H         4.55924080236503   -1.30541181833132    7.42958866699628
H         5.73399645614282   -0.50101997452015    6.39013912971491
H         4.52845032491405    0.45657025057159    7.26100231912512
C         3.53321216656036   -1.76145455464202    4.83986237605453
C         4.14363441337875   -3.10677708298597    5.04525519217924
H         3.37537058012933   -3.87370435535339    4.93420705016842
H         4.56313286829206   -3.16999649894473    6.05057605562291
C         5.24082615966517   -3.37357071198217    4.01221675124349
H         5.98329075364838   -2.57435370902668    4.01684759009858
H         4.77432519462339   -3.41224793719699    3.02303479143287
C         5.97626791061750   -4.67248994936913    4.20179451545024
C         5.87363901091592   -6.84901695018818    5.05406508626868
H         5.18647878237451   -7.43799144209928    5.65632838092703
H         6.04156592356580   -7.32798395447729    4.08713672041375
H         6.83478466635276   -6.74054668933266    5.56162389003733
C         2.55745319280657   -1.42461592958696    3.86478167250450
C         1.94643116917008   -2.33592145590429    2.91979253778136
C         0.63296531027921   -1.94612827763254    2.36571566649613
C        -0.30369780654475   -2.90139499935185    1.82985341187503
C        -0.07137971103899   -4.36550693931852    1.74069224612270
H        -0.97712654036946   -4.88611881177966    1.44037882836155
H         0.71979672699550   -4.57427968721180    1.02238231625666
H         0.26419995021292   -4.75264087876662    2.70081884554159
C        -1.40762452670404   -2.18828307186681    1.44549626339691
C        -2.68306995960101   -2.69233092626613    0.85954464163420
H        -2.51785525427771   -3.67563855016850    0.41704828502176
H        -3.01697875043605   -2.02338575999267    0.06314424422571
C        -3.77279391271475   -2.79605898346732    1.93042705221972
H        -4.70193682597915   -3.15427687893890    1.49300273345702
H        -3.46656323516078   -3.48860780271123    2.71071839717554
H        -3.95294124357963   -1.82622486588561    2.38857823480745
C        -1.11469713218356   -0.80277970242538    1.72447365896636
C        -1.88554620879791    0.27845188079552    1.35762384045466
H        -2.85743058271299    0.06958901471606    0.93334656579468
C        -1.53014097333091    1.62710328136943    1.45281349628139
C        -2.40759399675539    2.72716256125713    1.13260862194831
C        -3.81218437793157    2.57039610158227    0.66430327836721
H        -4.26863720466259    3.54012568813738    0.48810726492296
H        -3.84650358927043    1.99802177679368   -0.26275268859107
H        -4.40629739527105    2.04369303980333    1.41080117655228
C        -1.69560339839526    3.87186326058172    1.35254572825851
C        -2.14610695547817    5.28034189498387    1.15221155032974
H        -2.96607462834818    5.28725197159213    0.43099806589036
H        -1.33218904032949    5.87369035567514    0.73076732825381
C        -2.61689683925059    5.92769571690499    2.45673599275689
H        -3.08618154959691    6.88638174394445    2.24914715555255
H        -3.33857037994558    5.28794827123045    2.95999191881626
H        -1.77475343249343    6.10083337452231    3.11926084464430
C        -0.39129425526732    3.46107071333799    1.82312499984191
C         0.62911428098130    4.33444724106751    2.18783944621715
H         0.41426351616661    5.39036804887102    2.11350248555490
C         1.90726593773508    3.95490642018044    2.57051295143323
C         3.06570464114192    4.78572058341473    2.76645687100203
C         3.07765335248232    6.27687253142968    2.82251735852612
H         2.38375258279672    6.68554303868869    2.08431374305886
H         4.08079647418312    6.63678147482473    2.58883013405727
C         2.68323091586531    6.81656695644649    4.21195251776147
H         2.79656159199170    7.90154811457011    4.21440779108954
H         3.31558068834169    6.37515920403373    4.98136606098546
C         1.23546337926919    6.48405846032588    4.48430978308414
C        -0.15712859524193    4.99424685071575    5.70151894534992
H        -0.28805916881069    4.98911461329895    6.78286348554347
H        -0.93616587327845    5.59312267230978    5.22919426410863
H        -0.16906906209968    3.97279548285090    5.31616843559715
C         4.15082069501462    3.93879902548228    2.83981225599655
C         5.58263114384785    4.30933543745492    3.00378866386571
H         5.84381321593696    5.13152324148279    2.33812422214605
H         5.77479828063990    4.63150892828704    4.02782159086702
H         6.22095783619830    3.45918582434873    2.78458837052824
C         3.62663026585878    2.61802758969851    2.68572227235866
C         4.25833511664889    1.33540984516546    2.39801697915740
C         6.20780399921737    0.01629488788778    2.46383385614356
H         5.46092661226429   -0.78747275164356    2.44134003353305
H         6.66655239713754    0.07686286536440    1.46829423584204
C         7.25738092464429   -0.25589785879677    3.50692610933952
C         7.42217562138600    0.57733914882145    4.60348673430049
H         6.79680692123314    1.45086117399553    4.70126245301145
C         8.37983029695011    0.28903078590200    5.56181071858247
H         8.49778363944151    0.94311883899384    6.41395029105434
C         9.17599371606232   -0.83547303081462    5.43395234566468
H         9.91740168994711   -1.06292441156450    6.18545905317332
C         9.01906311791250   -1.66810045748906    4.33755853045877
H         9.62978226985541   -2.55112837669374    4.23124501686659
C         8.06840998311377   -1.37856164649848    3.37610821464369
H         7.94876681925496   -2.03288301787669    2.52536851867121
O         1.54316738217006    2.28118902331775    5.10655921595094
O         3.40428606795798    2.21915588805299    6.38814303045805
O         7.08738437034285   -4.88826364101371    3.78559996969173
O         5.26240614533861   -5.58122933713862    4.87673449078772
O         2.43304876758562   -3.42989747194436    2.65161131721470
O         0.30175692481110    6.98041041066677    3.90545290875356
O         1.12618544314942    5.55127338155840    5.42524977676834
O         3.63807256319434    0.44304866557434    1.83812031371890
O         5.54380738776080    1.24898719342218    2.73109103880320

