120
CSD_code = RADWAU | q = 0 | S = 0 | Stoichiometry = C51H54N4NiO10 | MND = 4
Ni        5.35589306839134    1.25179389981692    5.27848571016059
N         3.45744183344179   -1.46475366626882    8.47910372036653
H         4.35494956144444   -1.79251847346272    8.14536004488088
N         3.60663349280508    1.43816993287320    4.86383133059212
N         5.84275132310129    2.10828762696279    3.69777558470883
N         7.11018622596539    1.08997348954474    5.89527397596200
C         2.78692560738325   -1.95605607769148    9.55494204698434
C         3.25470487182473   -3.12796024557209   10.27522352156749
C         4.98165515184915   -4.74539702373608   10.29696827022263
H         4.27305936824550   -5.27514245195520   10.94331431388594
H         5.32610123076541   -5.41967053722100    9.50453099652403
C         6.15396727175365   -4.24452605556935   11.10407556773735
C         6.87444191406088   -3.13631084748910   10.67781630570210
H         6.58414358353787   -2.62727062541145    9.77125757769570
C         7.95118280873901   -2.68057261125852   11.41795312312973
H         8.49977015671922   -1.81223891905850   11.08379811157497
C         8.32191480669732   -3.33182684354162   12.58181958309060
H         9.16259842843833   -2.97551406374998   13.15901299096831
C         7.60786592464801   -4.43924358386597   13.00760925473258
H         7.88981552065309   -4.94797382920673   13.91787184730237
C         6.52499994600545   -4.89161623952234   12.27464930713566
H         5.96172905497155   -5.74899427730278   12.61408983635415
C         1.66572396560597   -1.15305160310228    9.77291435318053
C         0.66341265187232   -1.33310453508105   10.85713878087170
H         0.66440275878270   -2.36629177889529   11.19253092381826
H         0.91427754267997   -0.70839298494613   11.71430570144364
H        -0.33126171629636   -1.05683843910269   10.51296802914793
C         1.67206211506231   -0.15855288847883    8.77845492505758
C         0.77811963796733    1.03663623650966    8.71899569645828
H        -0.26663304452548    0.72945277967234    8.80956337253310
H         0.91419500045801    1.54391739529036    7.76533555418361
C         1.11383957484711    2.01913852128259    9.84382816571103
H         0.47010467049146    2.89367806972536    9.78254333662492
H         0.97757648825049    1.55649534036027   10.81695279379651
H         2.14811413427730    2.34412306705570    9.75915308497954
C         2.78942156768521   -0.39631925197638    7.97491707550869
C         3.36191582709766    0.29003353851088    6.83428092793689
C         2.70856156093676    0.83779275944138    5.71668887029782
C         1.41629853433296    0.86882458049777    5.11469891958398
C         0.17613137038047    0.20558177532291    5.60904163785851
H        -0.30571233808794   -0.33108823299400    4.79273025547098
H         0.40955247562280   -0.49855605738535    6.40260366235537
H        -0.53924761280106    0.93551447180270    5.98856261543226
C         1.55734555347437    1.54755704827108    3.92182044456228
C         0.50379782676091    1.82622292878893    2.90030177999017
H         0.66382738413119    2.82003255587135    2.47542883908935
H        -0.47791355510192    1.81903454724741    3.37735248307244
C         0.52922972333409    0.78981277599757    1.77375772968545
H        -0.22101078964031    1.02504712271376    1.02195319794046
H         1.50680794121479    0.77117413046593    1.29722742956351
H         0.32197384320253   -0.20399174711020    2.16481848565025
C         2.93986148917275    1.88232327647343    3.78412392616592
C         3.62857371367547    2.50973712724146    2.73015341606044
H         3.06890259961511    2.91192113118670    1.90101636849455
C         4.99994418110943    2.60941522734003    2.72797431625779
C         5.79523938825477    3.23456826934268    1.68620025296219
C         5.21580633715612    3.87576620194539    0.47498822373965
H         5.99838341022730    4.27999395875965   -0.16114532175607
H         4.64268418476763    3.15010877149107   -0.10156809751348
H         4.54496683716093    4.68582530321675    0.75886887919017
C         7.09652619292536    3.10675889553414    2.05009497031947
C         8.33250138089810    3.55309468834461    1.34371780887387
H         9.00149894038456    4.02484963657237    2.06724792284570
H         8.08305853814500    4.29611003221817    0.58642697056282
C         9.07479102301288    2.37048870037319    0.69145162596834
H         8.98488698923960    2.37439899146210   -0.39395736796224
H         8.65124610786012    1.42965017370200    1.05466970482685
C        10.53979765245260    2.33921866296346    1.05907494960772
C        12.66326601052955    1.65519520621490    0.34820400103904
H        13.10262564323268    1.23612993563886   -0.55298802518033
H        13.10481622370098    2.62764774521851    0.57495047712066
H        12.81417699314938    0.98906312620054    1.19944846222958
C         7.11605025639918    2.39962533332843    3.31895242421414
C         8.26072879529995    2.07536397784620    4.02497962606343
H         9.21707252998399    2.34974680684470    3.61451198591289
C         8.22859096837758    1.43711895504091    5.26469173651893
C         9.41256317055849    1.08526342006082    6.05064924082246
C        10.81506224061926    1.33318864406382    5.60790456294345
H        11.48619813772930    1.29591332808621    6.46718376591542
H        10.89932809325336    2.32031203017853    5.15202211424468
C        11.26887950512802    0.27305913674064    4.59651917658336
H        10.85189395032948    0.45702263629707    3.60773148646683
H        10.93550914786763   -0.71466938986651    4.92816892105980
C        12.77427391345783    0.22256454969288    4.49970820444409
C        14.57259383823367   -0.32990807488491    3.09749243241107
H        14.70944219963820   -0.84081805835667    2.14756664472298
H        15.04800890639187    0.65272410901321    3.07568904590453
H        15.00533233262675   -0.91133291595912    3.91354300210330
C         8.99619291401059    0.49614944887313    7.18227283052099
C         9.73903412927337   -0.04008075594796    8.34668638432754
H        10.78952093621434    0.23317519162990    8.30118890021248
H         9.29540653798558    0.35335039053050    9.26045443313243
H         9.65857974475044   -1.12770256236042    8.37883511525294
C         7.48747325958603    0.41540595310904    7.14162732769361
C         7.06573616477158   -1.05808241711489    6.95965844811613
C         6.96663779816955   -2.78974818080860    5.40877699400174
H         7.61959247259471   -3.16972465007747    4.62015789576253
H         6.90319404006604   -3.51303626616890    6.22795011474574
C         5.59942217732358   -2.43863689570066    4.88343845874851
C         4.45071047969667   -2.99346512769061    5.42685221296283
H         4.52825382304643   -3.71113327332911    6.23081272094454
C         3.20673214537995   -2.62766357030696    4.94071911663884
H         2.31558638279835   -3.06023887027455    5.37087946160154
C         3.10498301808082   -1.71154386829756    3.90884226525838
H         2.13590881755357   -1.43935201916521    3.52099783363591
C         4.24796790443396   -1.13110529677218    3.38067650080032
H         4.17276094385600   -0.42221523537607    2.56943246968180
C         5.49373167384833   -1.47901907496915    3.87880039329606
H         6.39249273757007   -1.04635865304554    3.45895414926729
O         2.77730804779992   -3.57555384321013   11.29208862816372
O         4.30898510706394   -3.68302927859200    9.63473908211671
O         4.64590807061280    0.36577478676237    6.80927304663172
O        11.00236761612903    2.72022587641832    2.10365034592934
O        11.27196451841986    1.79781802786482    0.08300175177676
O        13.54288322384886    0.47986988298355    5.38565965788388
O        13.16874050037679   -0.19211771233080    3.28377482583008
O         6.31836207212825   -1.63367647604378    7.70727488803144
O         7.60281632977313   -1.59039251313191    5.87062132654399
O         6.89867942679921    0.94279155255077    8.27531193587794
H         5.94034092009321    0.79355517733898    8.19349055741374

