73
CSD_code = RADYAW | q = 0 | S = 0 | Stoichiometry = C25H44OP2Ru | MND = 5
Ru        9.65806124513418    4.73070728638861   -7.54524177324669
P        11.66384293938178    4.45110374131625   -6.53445617148372
P         7.85528746211536    4.38073318154037   -8.93128613876811
O         8.44014103100399    6.81326118399014   -5.74250501467587
C        11.75723340171612    2.72426132427138   -8.59435119183734
C        10.42356187870757    3.15859953344767   -8.70231014523688
C         9.58683487843439    2.35308295209976   -9.49306613077972
C        10.05634712506283    1.22835324977102  -10.15894569816407
C        11.37930075624745    0.84676076285700  -10.04344816548710
C        12.22652723868283    1.59284817287841   -9.24415415250478
C        12.69997638499640    3.53953285419191   -7.74786998476669
C         8.11186967710977    2.66453155197790   -9.55284232693806
C         8.92213218317217    6.03547408698230   -6.45440895412522
C        12.85442940753269    5.75629118289733   -5.85952544727131
C        12.09369667163640    6.72311051695550   -4.95230935700770
C        13.29311578503428    6.54522254756783   -7.10027908751735
C        14.06657790854531    5.16856157113799   -5.14370104223846
C        11.19039899105062    3.14673927680841   -5.23770107618036
C        10.84353557484962    3.82370101773931   -3.91159719128207
C         9.88786646658432    2.56341379383184   -5.82132905494461
C        12.20322550613649    2.02850440351808   -5.01058603806449
C         7.79954574519497    5.40217753513485  -10.52499190540300
C         7.84704933161113    6.88383078725830  -10.14661855586636
C         6.60872676882749    5.13506681168015  -11.44302221017398
C         9.09097362035263    5.05522056447050  -11.27273083358098
C         6.11419049542651    4.26049726737720   -8.17358266986747
C         5.56016721610302    5.66609606242985   -7.94719857472784
C         5.10573323188105    3.41487966466857   -8.95100340929320
C         6.33862749930025    3.61162883309339   -6.80199372861060
H        10.24172184592761    5.78197892066591   -8.47856920431049
H         9.37665693980504    0.63976310852231  -10.76299201703304
H        11.74422625245516   -0.02921188331390  -10.56032307319639
H        13.26106499038109    1.29398102858583   -9.12831013615451
H        13.48721258854785    2.93692988384843   -7.28653561638576
H        13.16805848831685    4.29608072148355   -8.38597239848334
H         7.58685344663468    1.97742133652880   -8.87615911680669
H         7.69537985475923    2.51945985397333  -10.55409119546836
H        11.83923849430492    6.28179129158834   -3.99422150641844
H        12.70380988855346    7.60456070089916   -4.75785130040691
H        11.17816653924756    7.04593340671879   -5.44823011518970
H        12.43584548181121    6.69034518942105   -7.76501258029392
H        14.08705703516857    6.03865211565643   -7.64420731983139
H        13.66664154752906    7.52535292573935   -6.80892368586596
H        14.76751890293853    5.96705110264970   -4.90149370937530
H        14.58327170825277    4.44716009060173   -5.77397685031896
H        13.78285895318865    4.68078449094242   -4.21381781695649
H        10.34703969861594    3.11296668478231   -3.24927280481718
H        11.73481125326960    4.18006997336577   -3.40144885789976
H        10.16712006237828    4.66339661042690   -4.07842519635530
H         9.25117877091480    3.38192718595193   -6.25120466746700
H         9.30302389795130    2.07203133331297   -5.03971625147806
H        10.10262672633081    1.82320474231670   -6.59473303256481
H        13.15498553070032    2.42168107527697   -4.66060329272014
H        12.37215170067544    1.46112831557978   -5.92376448039241
H        11.82318321259181    1.34013130704483   -4.25500753688022
H         8.62461786773256    7.04608778270955   -9.39717694652685
H         6.89965958042584    7.23035008519029   -9.74483221119914
H         8.08023421377657    7.48404634729753  -11.02493156079160
H         6.77332391036559    5.64684831125693  -12.39121234540169
H         5.68246268557464    5.51718552975262  -11.02147613527394
H         6.49373372872311    4.07410155852193  -11.65643710620853
H         9.07558670825340    4.03862989615952  -11.65822958474158
H         9.94758620876931    5.15975420700085  -10.60595534613219
H         9.22387492342855    5.73375723409235  -12.11423475828982
H         4.72766081579250    5.63126025532682   -7.24441716214085
H         5.19551961188412    6.10284019285873   -8.87321205137687
H         6.33199323284773    6.31372635447882   -7.53155542874957
H         4.16347161830537    3.39894364306456   -8.40235243007715
H         5.44040074560978    2.38615694864136   -9.06077413118346
H         4.90740660629649    3.81920140358309   -9.93718324914895
H         5.38582384452758    3.46536376444291   -6.29349268270494
H         6.95621509749778    4.25754155195979   -6.17410032539870
H         6.82014836701604    2.63634170277149   -6.89290675138143

