78
CSD_code = RADZEC | q = 0 | S = 0 | Stoichiometry = C32H35BCuN4O4P | MND = 3
Cu        4.02603005011593    9.62082727956752   11.07286194299039
P         2.23122634439363    9.55332322396915    9.74018794978881
C         2.74029615882984    9.65176305636949    7.99061449418651
C         3.89802628623727    8.95027292406638    7.66343664671127
C         4.40870734930070    9.00205203098995    6.38153365623609
C         3.76542123013403    9.75684560851304    5.41231878083973
C         2.61082698710941   10.45129515084706    5.73079793686353
C         2.09681670024583   10.40260322697284    7.01623415747609
C         1.53285579917200    7.86668797015849    9.76304753044814
C         0.83564438631915    7.32665982261584    8.68665796452945
C         0.33529589544343    6.03993444334463    8.76554190091346
C         0.52708442046632    5.28703830162141    9.91370131094287
C         1.22536256532039    5.81947794538648   10.98527460012632
C         1.73072774319109    7.10525067631666   10.90936038175493
C         0.73766036247320   10.59828186415644    9.78683114683048
C        -0.54192465165376   10.09161575362030    9.99034285547755
C        -1.62319841753907   10.95271537722326   10.06727473527082
C        -1.43909252219478   12.31992325986123    9.94812237303575
C        -0.16425977747823   12.83097250800850    9.76058614550176
C         0.92049009013864   11.97719995527492    9.69035384970525
N         5.86779733625717    9.89258540659046   10.30861007709163
N         6.92844781960010    9.16519530388608   10.58466304032223
C         7.97668354052636    9.57783648115608    9.84431405158230
C         9.32724238738920    8.96350763291684    9.91728169387816
C         7.54992588736297   10.62740928355512    9.04766914448386
C         6.19894099987896   10.79614088346891    9.37766473295625
C         5.17705842060832   11.70034473300164    8.88403528329316
O         4.06786046840486   11.79710398437968    9.37820189096292
O         5.56964190479804   12.39970370122887    7.81566077536536
C         4.60835910612389   13.26647123774915    7.21565952922514
C         4.95401842985970   13.42775953234572    5.74685496868076
N         4.82184614234121    8.88883651208672   12.75513615675437
N         6.07191835977543    8.45420447512953   12.81949396848951
C         6.50399772619332    8.47478038813136   14.09535139734759
C         7.86219280781298    8.04633910524264   14.51919013504996
C         5.47625408538692    8.95616409749186   14.88702752163157
C         4.42793401412892    9.21079549204024   13.99430278676018
C         3.10062057499162    9.74101036821203   14.28784052625442
O         2.71448756831800   10.06452062968443   15.38656011018870
O         2.33882157202101    9.81666287847839   13.17842108580563
C         1.03680972863386   10.37541551126442   13.33213650265629
C         1.08094754060421   11.89338918451761   13.24227415536976
B         6.80099645114928    7.95348658744896   11.54951044137120
H         4.39679903655401    8.37618350642576    8.43445165523688
H         5.31221911711337    8.46285145288027    6.13714857598966
H         4.16558385639768    9.80360326825501    4.40972165526101
H         2.10855760612323   11.03962192434226    4.97583094878967
H         1.19954944682009   10.95398281822174    7.26031317767570
H         0.68824799361488    7.91587430130311    7.79156980210752
H        -0.20554205108031    5.62092180739230    7.92922805719988
H         0.13526638404016    4.28194111688635    9.96933415833765
H         1.37953241749916    5.22997937765742   11.87706273366823
H         2.28860167369911    7.53676216672045   11.73079210077754
H        -0.69552175582602    9.02606429455263   10.08688200842928
H        -2.61500144332993   10.55269219698959   10.22134873368623
H        -2.28699043904117   12.98647283176399   10.00656132215453
H        -0.01741282244608   13.89818639535276    9.67735324537251
H         1.92207271754118   12.35970755984296    9.56303079445754
H         9.27935117795493    7.90898975901880    9.65244015705706
H         9.72554454182053    9.03539418959364   10.92773465972888
H        10.00051912610305    9.47379250795579    9.23336263532458
H         8.11918608858640   11.19284782565138    8.33977112341160
H         4.63715733111952   14.23129387745496    7.73589395343027
H         3.61156617406968   12.82926588761920    7.34246816285739
H         4.24069686405798   14.09692911395827    5.27439111246586
H         4.91982172826147   12.46076582542610    5.25179091866887
H         5.95394885217214   13.83955990051223    5.64104200170469
H         8.62490946929886    8.63775877876039   14.01581905893097
H         8.02826191664906    7.00028092226026   14.26881645839080
H         7.96569019418443    8.17542074539613   15.59341232554265
H         5.46805095167237    9.10479280757298   15.94651889963077
H         0.62820934017127   10.06125821791552   14.29885876356715
H         0.44392593398344    9.95170673440583   12.51829633634427
H         0.07001448062624   12.29141884438610   13.23457415285224
H         1.58815834046833   12.19065441695399   12.32723710027359
H         1.61807322083631   12.30028943561679   14.09562930201796
H         7.87753762536294    7.55279043641310   11.82995302872538
H         6.10491503312617    7.14094096589928   11.01582054481206

