57
CSD_code = RADZOO | q = 0 | S = 0 | Stoichiometry = C28H24AuO2PS | MND = 2
Au        7.24471295446887    6.09905514531036    6.92036543916030
S         9.76029969028185    7.24654134200567    5.12092239340462
P         5.61197069230951    6.57761541272049    8.42284591886728
O        11.00955219779937    5.50560012773167    3.83924595597781
O        10.49911926889562    3.31268077326610    3.70128893456566
C         8.77715102603235    5.86038545892791    5.57741020991606
C         9.16902313849295    4.67633363189560    5.05224194645939
H         8.64124117703549    3.76298229968827    5.27916676972059
C        10.29675503794741    4.57152307178865    4.16107221595301
C        11.59523218554389    3.15712114036468    2.82037492189262
H        11.60431561844962    2.11057524919552    2.52405325119821
H        12.52981912296378    3.42047512720936    3.32227364569886
H        11.47759229655890    3.80180241755063    1.94570959496050
C         8.81300535424145    8.54301301834706    5.92238189502875
C         7.49495518866652    8.78931188081522    5.55261242494930
H         7.04960942166434    8.21002010173107    4.75712233019603
C         6.77378750395094    9.79265990560089    6.17551088590960
H         5.75312814261168    9.98630627825094    5.87720532205516
C         7.36245115683672   10.55522224872567    7.17104104735292
H         6.79469479047170   11.33125783575528    7.66379992903438
C         8.68427929551189   10.33130377518624    7.52022436807217
H         9.14958231763745   10.93461362691072    8.28678085747850
C         9.41114697205784    9.33363476321461    6.89258548429777
H        10.44230689459172    9.15273449492652    7.15642755674654
C         4.52182586977102    5.23212996498341    8.96787402868684
C         5.14863902857887    4.02933510012003    9.28552196102556
H         6.22475813289559    3.95458073886180    9.18826733295928
C         4.39967927629239    2.95065476151511    9.71457462012702
H         4.88659704675455    2.01975821979175    9.96387048738090
C         3.02170715846480    3.06457936932666    9.81652726669960
H         2.43448716329572    2.22107403584438   10.14733182946740
C         2.39527416907032    4.25633265148944    9.49000194168587
H         1.32125612624066    4.34107429577393    9.56727176956726
C         3.13928809797718    5.34296682615021    9.06511581461897
H         2.65109983954611    6.27372234037396    8.81081708076661
C         4.47002605751995    7.84307001276454    7.80823633121569
C         4.23204627805660    9.04876454356901    8.45563654435110
H         4.70830137576192    9.25887284590614    9.40290820856781
C         3.38673654552547    9.97962971461543    7.87673816557498
H         3.20071304114854   10.91793178047712    8.37837802492401
C         2.78427558030906    9.71492065930192    6.65801478709360
H         2.12860159179701   10.44703909848348    6.21060488986670
C         3.02851656906764    8.51530198863137    6.00576544378475
H         2.56544306338439    8.31311671010068    5.05133708809708
C         3.87507362817452    7.58440873107551    6.57470699768606
H         4.08812833521953    6.64882773529005    6.07205485091558
C         6.22571233329746    7.27451494392789    9.98009548337539
C         5.56890910431532    7.10863630373538   11.19533062187029
H         4.65833815843971    6.52722043508117   11.24338457249371
C         6.08901728396541    7.69037016267914   12.33734947934671
H         5.58121532306818    7.56263538333261   13.28207045569352
C         7.25611686890059    8.43526791647786   12.27219530251797
H         7.65611841862619    8.88673588566378   13.16783844847983
C         7.91269633411997    8.59730905465282   11.06249637234059
H         8.82456222325263    9.17292112537432   11.01146764754516
C         7.40338272322330    8.01384734221731    9.91749044105999
H         7.91042580880660    8.12668019524571    8.96766241139434

