62
CSD_code = RAFCEI | q = 1 | S = 0 | Stoichiometry = C29H29IrN2P(1+) | MND = 6
Ir       12.33416488498939    4.79252865749107    8.14748876068390
P        12.33303109246963    5.47632526807942   10.35532274084475
N        11.12277626541260    3.28978195562051    8.95735661644874
C        10.15110638426832    1.95893566227871   10.43380668561140
H        10.05945753434868    1.41063490343223   11.34864458127625
N        11.25446663665620    2.67849027326324   10.14490099116086
C         9.26411964804363    2.12295122251869    9.39768525245739
H         8.28730921605158    1.69950654661582    9.29947518896509
C         9.91930631282341    2.96170126664525    8.49848868741825
H         9.55707297568433    3.32874954259794    7.55932111094683
C        12.37300447129035    2.78235158161532   10.99840736174639
C        12.83303566959979    1.62961660145365   11.62166990522983
H        12.38680777940063    0.67681091530539   11.38043075567498
C        13.86642399297524    1.70274605267541   12.53908324484166
H        14.22394353254795    0.80402448592833   13.01560754982458
C        14.42915831318993    2.92994314562732   12.84573293941182
H        15.22054233703309    2.99561003136223   13.57571297290632
C        13.97974492350968    4.07829912883459   12.21686598729792
H        14.41764402084129    5.03103752949038   12.47253308294548
C        12.95538989577128    4.02539113988984   11.27849596271269
C        13.24704862971042    6.89099233416145   11.03438195258145
C        12.57829263491242    7.98823687259297   11.56824708581384
H        11.50024038332787    7.97970045485489   11.64253483286883
C        13.29432819538939    9.08724356469181   12.00972707520042
H        12.77083226294979    9.93240244731610   12.42955066238505
C        14.67567672724262    9.10542477758429   11.91137791857841
H        15.23034599787677    9.96394694099672   12.25650446423700
C        15.34653037694297    8.02237090918548   11.36427854525382
H        16.42269041257168    8.03738873879474   11.28205129848167
C        14.63749763549685    6.92282393943137   10.91896576862632
H        15.16011674196258    6.07729046750438   10.49161326192190
C        10.66770902917074    5.62400960827658   11.08018334042899
C         9.60262000380912    5.93174219195061   10.24017049646800
H         9.79298667789725    6.10522652740677    9.18790378404869
C         8.31951272886668    6.01577911534166   10.74988982266588
H         7.49381898045437    6.25597340897539   10.09774545061029
C         8.09724159049423    5.79063009006135   12.09884805000793
H         7.09655438147704    5.85304694629814   12.49737658385515
C         9.15735872047996    5.48765559832363   12.93975744679846
H         8.98150059776042    5.31725254029955   13.99090592631184
C        10.44219334684205    5.40254234906176   12.43582087542082
H        11.27232336352872    5.16859553593204   13.08856436118888
C        13.05615467611181    3.53145797500515    6.52725202691580
C        11.97787390126388    4.24917402139467    6.04181275037618
C        12.09592639420278    5.43521671484804    5.11281660574938
H        11.23629293747327    5.44583173631002    4.44193781063037
H        12.98458144693666    5.31934563831431    4.49374631248026
C        12.13743272985093    6.77254250096623    5.87677528172974
H        12.66834548079673    7.52499556762651    5.28677498486592
H        11.11801958302920    7.13754233932811    6.01466901195791
C        12.78449700081116    6.66558154324896    7.23613245052219
C        13.99076423515186    6.00891769187736    7.49715429242860
C        14.84120956452923    5.34967354233183    6.43259543885523
H        14.71590361836916    5.88335774140786    5.49140092011608
H        15.89108983652520    5.43697100653906    6.71311008498689
C        14.50404578620975    3.85646657698905    6.26209227700275
H        15.11405632267450    3.27239069696841    6.95334582520696
H        14.76216490790639    3.52844791745289    5.25095098520436
H        14.55414948042745    6.35817571960280    8.35884659830934
H        12.51018482013314    7.48188861059485    7.90729837725949
H        11.02569833064824    3.73049362878248    5.98365082482958
H        12.88748364086297    2.49461756063056    6.81330775840682

