83
CSD_code = RAFGEK | q = 0 | S = 0 | Stoichiometry = C40H38B2NiP2 | MND = 8
Ni        3.78575453856346   14.56361852524061   13.60538952671711
B         5.48070951883324   14.10453848088188   12.09924308553248
C         5.66664009583024   15.56765012218475   12.63523302192217
C         5.74321659539974   15.81899208184002   14.04234041661327
B         5.56663308652740   14.65526617656813   15.07784885948271
C         5.43280286694740   13.18661695318820   14.54169083523243
C         5.42673858494338   12.92758845198017   13.13378455848403
C         5.37141468065187   11.58684024361528   12.70830078728556
C         5.30679561135732   10.53577141490616   13.59416694892361
C         5.28359990407018   10.78983486788090   14.96183588057315
C         5.34661926804653   12.08681741115532   15.41564477014576
C         5.79283846627087   16.66365798868974   11.76142962170577
C         6.01010058401921   17.94426102409521   12.21396567562297
C         6.11470908177066   18.18443731355778   13.58029886072775
C         5.97756356604890   17.14064885585600   14.46649722948567
C         5.42857493658430   13.78678189322673   10.53818323066298
C         5.60449103537195   14.97590947219220   16.63880685261976
P         2.28894030342999   14.72976654686162   12.03228105176181
P         2.31972217179321   14.72712763033195   15.20766203418157
C         0.77197620235167   15.25850836264175   12.98826028701995
C         0.71803842121830   14.45537748571608   14.28460662149975
C         1.56402256053556   13.29512684177106   11.17036663349964
C         0.51927367264083   13.39994112110637   10.25761354822125
C        -0.01039574322650   12.26044847764447    9.68052726489667
C         0.48845363651265   11.01102922983117   10.01629408410761
C         1.51831071958071   10.89991768683577   10.93538276510922
C         2.05340446341471   12.03926474378691   11.50961088018652
C         2.41058946747973   16.02231090043381   10.76142279756005
C         2.54358193692101   15.73924024793476    9.40602045660204
C         2.78283411431716   16.75916457640951    8.50238481418937
C         2.91095145345371   18.06633182913976    8.94183109496724
C         2.81487598318008   18.35126634869920   10.29466643032021
C         2.57891432031160   17.33462767750239   11.19897542412162
C         1.89862781520148   16.32317908610404   15.98379773901515
C         0.85261735374781   16.48297866278000   16.88705128118512
C         0.56022760812681   17.73737830506114   17.39016805194143
C         1.29904264142195   18.84031592713781   16.98973964372429
C         2.33342542968218   18.68903864377816   16.08151767982905
C         2.63121560299161   17.43383555161961   15.58167625229113
C         2.19538225294361   13.51084993668031   16.55118591319538
C         2.38178407968978   13.84130043191276   17.88942961501267
C         2.41736980604115   12.84894697526336   18.85270630342628
C         2.28752761590764   11.51856221610699   18.49012770388951
C         2.13766116391859   11.17924939862853   17.15475928278120
C         2.10405262187427   12.16783099935151   16.19099852063913
H         5.39371749149066   11.37350312028140   11.64838635812552
H         5.27516714843459    9.51655830842487   13.23210854979979
H         5.22643902880157    9.96907948260929   15.66426098168520
H         5.34267252857840   12.26008469636327   16.48256038097159
H         5.73003956763461   16.49833238039460   10.69511583026890
H         6.10911395558503   18.76069337963593   11.51119633785040
H         6.30314783800603   19.18700202931116   13.94113462099282
H         6.06419636576790   17.34196702901673   15.52539055184665
H         6.40064086689619   13.41584103390884   10.20997566913231
H         4.69976339502524   13.01626673020492   10.29003201021517
H         5.19468931013154   14.65001885710733    9.91969185388701
H         6.63659062366399   15.13831039748043   16.95273494697356
H         5.20566234893719   14.18004284018374   17.26328066077240
H         5.05379471929777   15.88047295514776   16.89397340231198
H         0.86080501190439   16.32361023641029   13.21896807554240
H        -0.12939844402337   15.10488413384380   12.38860050883093
H        -0.13484292159781   14.75243279361115   14.90111072934528
H         0.62873572818360   13.39012124882520   14.05425212251954
H         0.12700365219927   14.37341999253795    9.99626460776228
H        -0.81702714551214   12.34432984463460    8.96629211480270
H         0.07093614959805   10.12496133310455    9.56081694524931
H         1.90458324390084    9.92694752721150   11.20226262360306
H         2.86249108273253   11.97274374065424   12.22727984711202
H         2.46590089544976   14.71857144146978    9.05967067481363
H         2.87915561320714   16.53181099977387    7.45027189652566
H         3.10092267528702   18.85917413585958    8.23325806267280
H         2.93784801561274   19.36617411484770   10.64393424335626
H         2.54189715666846   17.55036865263721   12.25875563224352
H         0.27347113577346   15.62463636272138   17.19949169806654
H        -0.24839009429845   17.85840103818382   18.09677689195337
H         1.06511852278002   19.81736526634068   17.38666108482716
H         2.90756301699907   19.54759231776973   15.76472671771683
H         3.44041245548355   17.29475157694371   14.87431848300230
H         2.50547645406661   14.87594876857926   18.17565585500686
H         2.55638409210530   13.11423073287784   19.89105296114056
H         2.31883502992442   10.74665289138959   19.24506054861909
H         2.06026662948834   10.14111512071365   16.86596055484361
H         2.02548675912006   11.90283537085458   15.14479062869166

