39
CSD_code = RAFJOY | q = 0 | S = 0 | Stoichiometry = C16H14Br2Cl2FeN2O2 | MND = 4
Fe        5.37314330784993    0.96158950922052    3.32550709880313
Br        4.36210445294009    0.73076092207556    7.00321892479030
Br        4.29923010535416    5.01322647591550    3.31537593381147
Cl        5.68535902088129    2.24967318756948    1.72546219698761
Cl        6.90056511178387    0.99353592125871    4.67222727135420
N         3.86239668580714    0.29020249917908    2.69758665041917
N         4.10593713856235    2.07083531320362    4.32059892577611
O         6.13856215777672   -0.69449894045359    2.23197362551204
O         5.40338527630051   -2.20212389230030    0.72717473620483
C         3.86006606726141   -0.76068559321653    1.82372617450198
C         2.69162260423023   -1.26492977345941    1.27825334377229
H         2.74986595929732   -2.09335370512761    0.59140810498084
C         1.47773998255344   -0.68332067612394    1.62554852504425
H         0.55641090855397   -1.05647861710624    1.20884673075090
C         1.46511206811338    0.38430264400352    2.50911966978811
H         0.53704247954242    0.85671969802484    2.78779506933557
C         2.66115191987893    0.85797202965921    3.03907078580903
C         2.84910737099101    1.91457064779867    3.97979597594502
C         1.72391568293577    2.72356465375904    4.53314007742307
H         2.05781417970500    3.33114994602361    5.37128755592532
H         0.91813445504376    2.07283828580666    4.86652475790213
H         1.33609798509457    3.38590099921463    3.75901821860342
C         4.53059235015906    2.97598113263767    5.28878764269157
C         4.81853176433072    2.51906598433186    6.57802731841932
C         5.37922126879816    3.34078878929224    7.53512754371815
H         5.59130803356222    2.95046878118321    8.51770620828279
C         5.66722875373654    4.65667752963859    7.21221201954234
H         6.12153669999743    5.30170039058568    7.94723902614429
C         5.36004118052288    5.15190813666148    5.95746584032161
H         5.55573578439329    6.18222776327910    5.70614799344300
C         4.78868425914962    4.31895459050092    5.01002463469342
C         5.21244468858669   -1.22353753278523    1.59446154364580
C         6.76423649476383   -2.60756132815283    0.52429775398759
H         7.17428062918095   -2.95275406755816    1.47969083492313
H         7.34326504370545   -1.73662113083415    0.19918495669080
C         6.77903240274546   -3.70794122361047   -0.51837411333800
H         7.80179442869254   -4.02838446676345   -0.69256007864515
H         6.35658255027603   -3.34559413898701   -1.45143749714743
H         6.19381874694921   -4.55743074434903   -0.17696198080744

