14
CSD_code = RAFJUD | q = 0 | S = 0 | Stoichiometry = C6Cl2HgN4O | MND = 3
Hg        2.31683241859313   13.67614782231774    3.18867363074273
Cl        4.21790830948188   12.42568579876272    3.08348380414313
Cl        0.39416488526967   14.94146475144204    3.26728311558010
N         1.40149963270899   12.93056903508000    0.84842028296357
C         0.56071931180437   12.14271487149259    0.27528306312821
N         0.02601135518037   12.44852208401439   -0.87913574530862
C         0.57788523994694   13.61311109361886   -1.12774124209460
N         0.39016156804840   14.40874926543068   -2.20702222352156
C         1.08869027747392   15.45823823573221   -2.11099288534800
C         1.81126303722854   16.65833542879491   -2.12994493448848
C         2.02746632385505   15.90191700072861   -1.02991649139303
C         2.25504464305004   15.10738059213399    0.13583916870320
O         2.93934482023401   15.27493662109500    1.10733917374017
N         1.45960817712635   13.95232739936435   -0.05356871683578

