105
CSD_code = RAFNOD | q = 0 | S = 0 | Stoichiometry = C52H42N2O6P2Ru | MND = 6
C         0.70113958930238    2.10554035262972    6.08469024515650
C        -0.06859683255931    2.48528492600928    7.24744509158919
H         0.46176326499708    2.56995292960756    8.18115675195434
C        -1.38392934335596    2.73357688846442    7.16160247799034
C        -2.26136398611936    3.15332348924834    8.29547867571872
H        -3.04735423800410    2.41493933451528    8.44466439117584
H        -2.74246521852051    4.10007631509211    8.05640722018558
H        -1.68254304978382    3.25803300678892    9.20733513289469
C        -1.40759998752358    2.21830787927590    4.82622803784929
C         0.02240677032483    2.01630448313549    4.83984180097360
C         0.66237146155725    1.66796590789638    3.58978792852476
C        -0.11385638488887    1.68892304492720    2.30530229928031
H         0.57529992396908    1.70930169718303    1.46424916962474
H        -0.76499478873793    2.55577638284825    2.27292376076508
H        -0.74879661106247    0.80965256611152    2.22732812177098
C         3.66357564319352    0.54630076761642    2.31486356568164
C         4.18446480389369   -0.12652583609150    1.10996840020915
C         3.33403985672547   -0.80273498377908    0.21999874999317
C         3.89480165336072   -1.53122160121366   -0.82793803234993
H         3.22832281057831   -2.05610870635188   -1.49447767772677
C         5.26208855300198   -1.57104207190305   -1.00554663575832
H         5.67660727054880   -2.13622394513500   -1.82748058129621
C         6.10258648713540   -0.88906878808100   -0.13746991273537
H         7.17213765781701   -0.91721452936418   -0.28160612593295
C         5.56228113898548   -0.18256833707920    0.91596610957618
H         6.19391173944363    0.34390834641981    1.61568041341744
C         3.52469338921305   -2.07703369444256    4.14834076453651
C         4.89969824345295   -1.93028822400194    3.96055587001591
H         5.43104806229564   -1.17522714114214    4.52906030640617
C         5.56564590986500   -2.72332577302289    3.04719566119420
H         6.62685123724084   -2.59652114197286    2.89502589951075
C         4.86730202011713   -3.67113882106267    2.31562019895603
H         5.38188005579542   -4.27419509479203    1.58279573007214
C         3.51122988819804   -3.84793548899173    2.52849156461798
H         2.96969591126872   -4.59978580500754    1.97366957155863
C         2.83706121928352   -3.05972941941435    3.44581384806908
H         1.78198746114031   -3.21807210172423    3.61569546935293
C         0.98434350582719   -1.14789723628302    5.28710378031084
C         0.29078029133570   -1.22621289420475    4.07958183505672
H         0.83149121839735   -1.23689696780393    3.14258229783888
C        -1.09118402162848   -1.28068133584275    4.07449981815235
H        -1.62298653390039   -1.35416699571356    3.13766688881187
C        -1.79629541964684   -1.21929515380085    5.26451537677995
H        -2.87529902428275   -1.23665337946587    5.25263335207860
C        -1.11362208475948   -1.12108978263556    6.46548402728150
H        -1.65924239818265   -1.06393740053658    7.39635724135562
C         0.26871640290682   -1.08834957003344    6.48059741552542
H         0.79644740366870   -1.00902362241223    7.42083855160707
C         3.27234962796443   -1.53868157238440    6.92264661518081
C         3.31009051028327   -0.66092544965922    8.00289023362748
H         3.06242887679052    0.38265501385412    7.84262576123241
C         3.65887571238478   -1.12244352494904    9.25860683456925
H         3.68943142887180   -0.44036854858728   10.09566476020415
C         3.97562504482319   -2.45930821023721    9.44129478124533
H         4.25533056296810   -2.81870905862510   10.42058625455203
C         3.93641599535385   -3.33503585434274    8.36875972003757
H         4.18336731908126   -4.37675064751115    8.51233413227240
C         3.58254332824363   -2.88050592082102    7.11071332477143
H         3.55332406077740   -3.56300017744725    6.27273609850854
C         4.39187352283498    4.53610669382598    5.94684050072552
C         4.11350962776666    4.08474045085369    7.23440086996556
H         3.50572358827251    3.19705285338926    7.36297811554954
C         4.60683403451744    4.76703676192473    8.33131129886192
H         4.39000903534445    4.41322243649238    9.32866664910934
C         5.38417246653609    5.89987290956566    8.15148391415002
H         5.77571583249493    6.42869964329231    9.00789647946581
C         5.66163710154174    6.35257778575455    6.87230732268874
H         6.26807434239737    7.23524160166471    6.73089526184119
C         5.16675009024957    5.67719437810583    5.77080648646745
H         5.38892043495427    6.03245798653017    4.77459488659622
C         2.14654860482132    4.50279416917260    4.21369328647199
C         1.43758507909586    5.09712486112862    5.25348843333468
H         1.86555454733167    5.12994204296992    6.24591608136687
C         0.18615781857196    5.63657833790754    5.01778956804651
H        -0.36349433927927    6.08834190069338    5.83080103284980
C        -0.36356204025903    5.59466374410987    3.74708542896580
H        -1.34232177082053    6.01286662571803    3.56686179447873
C         0.33915593620956    5.00651758463866    2.70816417903854
H        -0.08771505167738    4.97456759487067    1.71663971430737
C         1.58100530646386    4.44496080489871    2.94125867705126
H         2.11826801177191    3.95691765681575    2.13764117847495
C         4.82150587876180    4.08395750581719    3.18837090953020
C         4.62175968939906    5.17756865426467    2.35152404775728
H         3.74758062883319    5.80255083643229    2.47244310235981
C         5.54824837732432    5.46728909564649    1.36529960427284
H         5.38864183661202    6.31480850647802    0.71451319492012
C         6.67553628940834    4.67705366706070    1.21131751017026
H         7.39008803761416    4.90368443137007    0.43390017913396
C         6.88798021749007    3.59977181024944    2.05653020265228
H         7.77157747773606    2.98938050320803    1.94195957474805
C         5.96790607759687    3.30541683242863    3.04541158451326
H         6.11908181829666    2.46380155809398    3.71095195827106
C         4.83187323847955    1.27177146387452    6.05308808286900
N         1.91977625501748    1.32002514936570    3.54232867652170
N         2.38410537128463    0.82774022273681    2.34865540140296
O         1.93605029487062    1.90268702085157    6.33001524787955
O        -2.03434252471712    2.60670870896920    6.00060159240211
O        -2.17251016415689    2.07686891460520    3.89578368082647
O         4.48272397705868    0.76466555636698    3.27133673672057
O         1.99700642173660   -0.79285579417346    0.34906121072800
H         1.78275661707305   -0.18970949825872    1.10423041478772
O         5.79943368740527    1.18857618115724    6.66711568586537
P         2.78298828458974   -0.88078459102895    5.29900392431409
P         3.69706343582785    3.61340902531752    4.53675689657121
Ru        3.37214320831981    1.34250689112174    4.92529605808830

