71
CSD_code = RAFSAS | q = 0 | S = 0 | Stoichiometry = C25H35N10Ta | MND = 8
Ta        0.39662464774513   12.61127608448536    3.85739726845055
N         1.11949439958173   14.54508560922159    3.80017253506402
N         2.05773908498416   13.71563939644748    3.33333363534910
N         1.39077190798822   12.07528758586097    5.64437862806778
N         2.52367369920106   12.80134581411155    5.80871623183129
N        -1.02078121007007   13.20338031356065    2.39706757232721
N         0.01863202382147   12.70299860079948    1.72457389033353
N        -2.26963050349818   12.60618197202957    4.94758941709648
N        -1.09563140848721   13.19713858500812    5.25343860310876
N        -0.32452874468776   10.69439113437897    3.72406370849195
N         0.93737572850211   10.62057848981664    3.27707897066606
C         0.81836152922680   16.94190824770697    4.34059766805585
H         0.81030306546400   17.73186741044742    3.59130154219231
H         1.24552695723956   17.34835450234964    5.25620338386129
H        -0.20155149971577   16.62071832281267    4.53620940923753
C         1.62182952858989   15.78158638764651    3.86582447925344
C         2.94320853633930   15.73419155908903    3.42290342597032
H         3.63421678789818   16.55063895159084    3.35227596200104
C         3.17855234071644   14.39505003664994    3.10568992965880
C         4.42114042348808   13.74052400249790    2.61570930100746
H         5.21080137512319   14.47586721759930    2.48967358116318
H         4.24027821269704   13.24320116127845    1.66416027570703
H         4.73966856377411   12.99038352454209    3.33743891452804
C         0.05175576647292   10.36389595255715    6.86998743271277
H        -0.03481110736472   10.02726709384347    7.90039897765747
H         0.19005581895197    9.49131783512302    6.23011097424748
H        -0.87236516023667   10.85720282010196    6.57351933358961
C         1.20894338075450   11.29420341135808    6.73963984549229
C         2.24701995831445   11.52372051231827    7.61912071067572
H         2.40798425639408   11.07100728654928    8.57747054930146
C         3.04879703619608   12.48704537217717    6.98150836084930
C         4.30396541159571   13.11770031939546    7.47636939090204
H         5.07961469818593   12.36532594987765    7.61663663087248
H         4.13145846560680   13.60814011626067    8.43372395547133
H         4.64730130309127   13.85384775417366    6.75446410736376
C        -3.40346643498873   13.77369537436662    2.05413924524287
H        -4.20663374715627   13.32880817063103    1.47217865941258
H        -3.45231588919607   14.85661026408865    1.94044729490507
H        -3.52516785980248   13.52929130368411    3.10640435571097
C        -2.08628881422878   13.26158597013151    1.59234489206599
C        -1.70444924049074   12.78546549306604    0.33867166735131
H        -2.31457753895361   12.69432659709711   -0.53797958648598
C        -0.36133427253917   12.42807124790544    0.47484359471268
C         0.57073993766881   11.84026031156070   -0.52737588859405
H         0.71476626795694   12.52290392012267   -1.36396553500874
H         0.16515056997816   10.90773001680436   -0.91726899749366
H         1.53156139529865   11.64309340477901   -0.05857555272555
C        -4.54749026185220   12.41021708054185    5.87855376587228
H        -4.73426959647282   11.86413959938481    4.95746624580133
H        -5.24500661644745   13.24420135422369    5.94627785082003
H        -4.73090729745857   11.74810769055755    6.72441487115746
C        -3.14159507082247   12.90519943262399    5.90126578918190
C        -2.52572042209530   13.71574862135157    6.86734906454968
H        -2.96504178632664   14.12268263831233    7.75628258254976
C        -1.22724619838743   13.87307171050469    6.41913165756252
C        -0.10696293718115   14.61297041395273    7.06659660001504
H         0.75057753291224   14.67716962333381    6.40132548547370
H         0.20256746480690   14.09533363747702    7.97481062004004
H        -0.42764071868995   15.61622129596790    7.34380533224878
C        -2.40739831026855    9.37886109830039    3.76058704338134
H        -2.50736329997711    8.61545162135636    4.53136271923272
H        -2.98063858417264    9.06220159633330    2.89140138984353
H        -2.79600418737911   10.32246590525177    4.13713845215893
C        -0.97752778112104    9.57295893627546    3.39868202041036
C        -0.09105116597425    8.73975685054573    2.72143020265323
H        -0.28756267021759    7.76553861654788    2.31990006807477
C         1.11087105403427    9.45303893532469    2.65993533216602
C         2.40835797475624    9.06183858811950    2.04347360606284
H         2.28056158973879    8.87070484468325    0.97874806177443
H         2.79038625163302    8.15285347912825    2.50577050405535
H         3.13122538954895    9.86155502199388    2.18177798326411

