70
CSD_code = RAFWIG | q = 0 | S = 0 | Stoichiometry = C33H29Br2N3OPRe | MND = 6
Re       16.28571855716706   14.26946922964945   -3.42733026927147
Br       15.54699574387941   16.50874316452618   -2.67630114472887
Br       17.49997800506468   15.23378313130548   -5.41942102599820
P        14.74358585314960   13.24875527289756   -1.81406478219448
O        14.69501550721443   13.94862006008789   -4.53227895268526
N        16.68012545158095   12.29918314819645   -4.39723979341126
N        16.02384297893039   10.90459420156280   -5.97717364047906
H        15.48952181979884   10.53494567587014   -6.74513078364334
N        17.71256149833228   14.26297530445017   -2.40089514644571
C        13.12397694344877   14.02352348755760   -1.52718921304023
C        12.47756500945808   13.84234968281371   -0.30706389696268
H        12.94650617299891   13.26175057310709    0.47481309265745
C        11.23706008781048   14.41405015893442   -0.09522443816616
H        10.73936858667609   14.27333942591236    0.85313031707124
C        10.63712844343832   15.16990189624808   -1.08969064035170
H         9.67136759903112   15.62064415334224   -0.91548366552451
C        11.27861869200889   15.35264530253503   -2.30298697770935
H        10.81787080615888   15.94783755696296   -3.07694307162574
C        12.51850656762977   14.78180910092032   -2.52420263923659
H        13.02002233729963   14.92971260689382   -3.46964666758381
C        15.41234027117787   13.05889177262960   -0.13353066596558
C        15.30320025707238   11.89399496557487    0.61818274415883
H        14.78325930523520   11.03391126729889    0.21827991515202
C        15.85812800378296   11.83831681872100    1.88483086538786
H        15.77335406383996   10.93095375380305    2.46532673544059
C        16.51679223125123   12.93914605127036    2.40789928715535
H        16.95104275230671   12.88663152253661    3.39520982460351
C        16.61521471989402   14.10596297671026    1.66655069662957
H        17.12437361991178   14.96675081350022    2.07215913470994
C        16.06661800277908   14.16786328212011    0.39939063992531
H        16.14661963476318   15.07382213429119   -0.18697155524712
C        14.34371059459933   11.57051625742857   -2.36966280303075
C        13.13242225142316   11.27485403385493   -2.98496720769117
H        12.35389515339806   12.02495492268777   -3.02590137731901
C        12.93062716893619   10.02583962278825   -3.54701074196683
H        11.98837781660153    9.79941223204596   -4.02523030462575
C        13.93286648751894    9.07037739219827   -3.50316700100859
H        13.77333789598754    8.09948641659704   -3.94887876734816
C        15.14225898268774    9.35968362079365   -2.88868258360103
H        15.92821750776337    8.61891994036377   -2.85788344225137
C        15.34952147071265   10.60539338091078   -2.32917614689038
H        16.29834384958522   10.84767794235718   -1.86798474559619
C        18.83040306285839   14.28929002408110   -1.67688939520898
C        19.09448798977027   13.32494364636983   -0.68589865707847
H        18.36846360111358   12.54453148734546   -0.50977550649082
C        20.25484617837710   13.39345747749655    0.05190480466999
H        20.44238619883904   12.64875094030696    0.81254661276046
C        21.18735469847428   14.40463407942205   -0.16288430513916
C        20.92558369792327   15.35840967184332   -1.14687864077698
H        21.64223853165437   16.14760564476039   -1.32089459704487
C        19.77421615721897   15.31418918509639   -1.89544104875457
H        19.56049742389361   16.04864271634048   -2.65687684613702
C        22.44944545691252   14.47813569111831    0.63624220631068
H        23.31471906836134   14.36099713037174   -0.01555115629256
H        22.47919781270241   13.70190032221608    1.39640978737481
H        22.53339837104013   15.44904083547598    1.12221575837246
C        17.56452903121008   11.25164748035404   -4.41314199282185
C        18.69393777254220   10.99858410238064   -3.64622866825586
H        19.01791678469348   11.70327970139854   -2.89701160845609
C        19.37683284039250    9.82722043622389   -3.89990783795695
H        20.26135805943240    9.59659831037527   -3.32608150666944
C        18.95854834650255    8.93040496588901   -4.88499687551080
H        19.52629770955104    8.02683157503324   -5.04691914563650
C        17.84299321989394    9.17361972556292   -5.66218316330992
H        17.52531062220517    8.48476092149770   -6.42957555397423
C        17.15254970792761   10.34789582042494   -5.41496843708132
C        15.79717011795868   12.07298383076435   -5.33665224524580
C        14.70360053268434   13.06886411018145   -5.56510310455024
H        14.90075141301624   13.59145996036783   -6.52492752117795
H        13.73180688845546   12.54632595142511   -5.66389051878612

