86
CSD_code = RAFXEC | q = 0 | S = 0 | Stoichiometry = C41H39CuOP2S2 | MND = 4
Cu       11.38231074270798   10.22007938692940   10.22324270206469
S         9.13267633127900    9.75964373872900    9.80993217625368
S        10.74502115152256    8.94638740959886   12.12700854556110
P        12.44852388085487    8.61918410382538    9.03563183636405
P        12.08587404835989   12.28785147273747   10.47454798944125
O         8.28525788032767    8.14980734303418   11.57535624514741
C         6.76250240263299    6.61834171042640   14.62726213779913
H         5.72428450983173    6.62262583909047   14.94972809590240
H         7.34648064420627    7.19651896849244   15.33977201711236
H         7.11869004160773    5.59173738273614   14.64235556562057
C         6.87604377570832    7.21890074044326   13.23280573945514
H         6.42906491863178    8.21546318348539   13.22693080380870
H         6.33076780349660    6.60733203420737   12.51175149458660
C         8.99026747989233    6.01790226413380   12.46135889510654
H        10.00170983709129    6.18176436570487   12.09542144871617
H         8.42626400341179    5.48620154818095   11.69822664902744
H         9.04312281875137    5.41419584357048   13.36186734615789
C         8.32471850504555    7.35559573704015   12.76430381341906
H         8.91459791435343    7.89400529455468   13.51968409200019
C         9.33058164365852    8.87702693454827   11.22234774105800
C        12.73186450686796    8.04704700161466    4.97928182817917
H        12.92781674173175    7.24223410288956    4.28547993936943
C        12.73020394261166    7.79633451091846    6.33916098376371
H        12.91457136979483    6.79816111937547    6.71329202486060
C        12.47741373847777    8.83480630581225    7.23038870230527
C        12.20893439811465   10.11119630976936    6.74786569452383
H        11.97810696448277   10.90110291186321    7.45351426740616
C        12.21364553112079   10.35742834433560    5.38740361133704
H        12.00306217071274   11.35094785170121    5.01919385933423
C        12.47907096270889    9.32457558692063    4.50314785833748
H        12.47968483359890    9.51113596419233    3.43926971043488
C        15.77181401891683    8.49846223372097   11.31739773715622
H        15.98150792304614    8.61408732941383   12.37043084310467
C        16.80408160862130    8.26431271077740   10.42275910659093
H        17.82129675660442    8.19255536499893   10.77901430164601
C        16.53461469030471    8.12966284247037    9.07079576857389
H        17.34241088555606    7.95380748386365    8.37474253345518
C        15.23518440696316    8.21962207466219    8.60342085883128
H        15.02921338964238    8.12240925235932    7.54689064351874
C        14.19740134255708    8.44019862870685    9.49953778077299
C        14.47322230665970    8.59334854851813   10.85718051113086
H        13.65557292217329    8.79117296486662   11.54010822068587
C        11.75891472254417    4.73936328920343   10.16726284768408
H        12.22906205155665    3.97624419693068   10.77070157654450
C        10.52657965203186    4.49791067124718    9.58255231481690
H        10.03792517340872    3.54574642608491    9.72975402491976
C         9.91416812840441    5.48130564893944    8.82058805802586
H         8.94613008411511    5.30054607347617    8.37664626247825
C        10.53644950688502    6.70042315883073    8.63836558348338
H        10.05914803177375    7.48263656616602    8.06178811379656
C        11.78512819979055    6.93872341867438    9.21213084531693
C        12.38899016724542    5.95892975561544    9.99196186130960
H        13.34421670991340    6.15263485596844   10.46007281040670
C        11.30026528434636   14.82499409291883    6.73777246125068
H        11.09447624940288   15.40763123784452    5.85171350444071
C        12.49994620808381   14.99483719509444    7.41110380032079
H        13.22543019936583   15.70958692382429    7.04993304425037
C        12.77505309786656   14.25167360018540    8.54474188304938
H        13.71524385138099   14.37599258963993    9.06482698062944
C        11.83976277549738   13.33201737336500    9.00838298583243
C        10.63700178903220   13.15970320063780    8.32743269839609
H         9.92740120077077   12.42544113717255    8.68955021271593
C        10.36859464904493   13.90699899498930    7.19551306949306
H         9.43664214580553   13.76949456045160    6.66758086133924
C        15.92186953352365   12.25175709014992   11.90246176081686
H        16.43575094127030   12.44687944705098   12.83281818010385
C        16.63217434851622   11.81331031291445   10.79804078719035
H        17.70025046979374   11.66894157926544   10.86479230919405
C        15.97145360611109   11.55232350474044    9.60735107328375
H        16.52218892977131   11.20138828872392    8.74751873613454
C        14.60528164719442   11.72912797646039    9.52435810283369
H        14.07836451987844   11.50838521834964    8.60439349318726
C        13.88989191797159   12.19779240872464   10.62544709429436
C        14.55395891496395   12.44432178198179   11.82158607690825
H        13.99908386805516   12.78703862315220   12.68385087494466
C        11.63430201853218   14.74839455613650   11.80965450053099
H        11.98306739314934   15.24815641344056   10.91685526875304
C        11.58663082879822   13.35951350848949   11.85745264180937
C        11.11824441441700   12.71503570083683   12.99971195245200
H        11.06952922729061   11.63290106790672   13.01135958217908
C        10.71727891340752   13.45632991551835   14.09569184334462
H        10.35484811222388   12.95680818695059   14.98214901626509
C        10.77184959482269   14.84020873175385   14.04955557224947
H        10.45279391854234   15.42143464184410   14.90239583090324
C        11.22688722449745   15.48266168518327   12.90864235875878
H        11.26171403441402   16.56207964785479   12.87522502251880

