57
CSD_code = RAFZOO | q = 1 | S = 0 | Stoichiometry = C23H26Br2N3NiO2(1+) | MND = 4
Ni        3.77084268898199    0.36552529770472    7.34318005444187
Br        4.02971917408684   -4.75667614624852   12.66322238363725
Br        5.56025988544754    5.37771001728249    2.31518405228991
O         4.98524611089538   -0.49407803088614    8.52670879263809
O         5.15539175154377    1.51138845829392    6.90256833913706
N         2.55749835550481   -1.08329004288364    7.50122172986398
N         2.49912933599272    1.46471138777745    6.50841708736601
N         6.65881524085464    0.58655009631059   10.09271934512488
C         4.74548195800478   -1.41325640109792    9.41926641598402
C         5.67343145394624   -1.62861767145744   10.47537334427741
C         5.44010398318794   -2.60518728832491   11.41843319797447
H         6.14593159061796   -2.75972659890054   12.22033852934219
C         4.30504594035859   -3.41073103165667   11.34450862012679
C         3.39021589311005   -3.23256048280433   10.33325414996398
H         2.51100739709072   -3.85583132634308   10.28173478448282
C         3.58385996364703   -2.22846064504061    9.37725808460123
C         2.62818628010741   -2.06906733046059    8.32033238454891
H         1.91909877933999   -2.89240847140611    8.21248298759590
C         1.59952908875830   -1.17262591369899    6.41171532770185
H         1.10098819126833   -2.14907234825174    6.41510883044072
H         2.16316373965395   -1.08224389815160    5.47483840909305
C         0.54074063366991   -0.06291974141393    6.46940332727304
H        -0.26505596958909   -0.34921007671893    7.14545842031011
H         0.11813415856575    0.05411992900451    5.47154949024969
C         1.12851585401191    1.27072638337889    6.95415206447571
H         0.49434354408949    2.09348414580801    6.60540379722169
H         1.12935147779981    1.28709701263216    8.05030809265176
C         2.74653888193584    2.42410017275529    5.68349872874338
H         1.91055814463713    3.01174589800004    5.30206067792477
C         4.03696732683917    2.81814973240281    5.23550090295758
C         4.15926679901085    3.74034681785328    4.18279246150823
H         3.26913012789007    4.11957045852991    3.70447994743122
C         5.39900072800987    4.13845299346418    3.75306643286301
C         6.55359711916345    3.63791925100625    4.36266794697199
H         7.52259425472460    3.95100190194959    4.00583832904612
C         6.45548520441795    2.75408309544246    5.40433165474516
H         7.34799299496503    2.36022257875572    5.86494772054710
C         5.20035533521705    2.31044325972777    5.88400709220344
C         6.93100223302264   -0.79366189280568   10.53985582178648
H         7.68315723751838   -1.22398004823577    9.87021146123454
H         7.33858282899974   -0.78755342438116   11.55427302425203
C         5.78690789513934    1.32510447874948   11.02666357985663
H         4.95397901905701    0.68022051569786   11.31331454001942
H         6.36132517403256    1.57478414582122   11.92332126495582
C         5.28290685623465    2.58752926431654   10.34042868147800
H         4.61408038948074    3.12462447440675   11.01187649485724
H         4.71390937167222    2.30606329607681    9.44518558580237
C         6.46814162896814    3.46347214064970    9.94625627059801
H         6.12029840262651    4.34400726085506    9.40828965635547
H         6.98850906855986    3.80462988702954   10.84325507460943
C         7.41607548069928    2.66010478095561    9.06156781199840
H         8.29447090450979    3.25161837359893    8.80714553433542
H         6.89755145528042    2.39346717957213    8.13988424194149
C         7.85372092068088    1.37954593477716    9.76240869442938
H         8.49863536510412    0.79148295621210    9.10695036534345
H         8.40007418712323    1.60223460726657   10.68364537955381
H         6.07160816353134    0.41792062710136    9.20553257883638

