104
CSD_code = RAGCOR | q = 0 | S = 0 | Stoichiometry = C43H49BN8O2Zn | MND = 4
Zn       -0.88882585666067    1.67968067552598    3.70581481582434
N         0.83408753817702    0.87931635923896    3.18970318550694
N        -1.91418784397869    0.02862865155660    3.96333732392824
N        -0.35460123689037    1.52812918077166    5.67025171045642
N        -1.46475785120190    3.43244117092866    3.00179787048394
O        -1.49551435317558    1.69053905710942    1.60960078707938
C        -1.70401165494719    2.89444409605346    1.79115938072616
C        -2.43335488323394    5.05042662059061    0.89159994057089
C        -2.13306708709634    5.57484987899931    2.19319854752364
H        -2.28778942758140    6.62687346340457    2.36082862016551
C        -1.66806205744253    4.75451196414752    3.16641344978635
H        -1.43399247615910    5.13435081212604    4.15175043408963
N        -2.17070344569323    3.68474428031333    0.78856109459877
H        -2.34041838424989    3.23834378654680   -0.10477658990902
O        -2.86722986302128    5.65660908189708   -0.07041297790205
N         1.04623549841932   -0.34544686049682    3.69085977920880
C         1.95355567719881   -0.99177321241694    2.93828264510535
C         2.32799905925762   -0.14647756612220    1.90784589744591
H         3.04265499159677   -0.34535691007038    1.13536437310471
C         1.59238531272791    1.02690284095901    2.10456872819090
C         2.41737798063640   -2.37647727865057    3.21462162650525
H         2.77618048771881   -2.46726163771584    4.23777455439172
H         3.22148372739355   -2.63590238993991    2.53155617692968
H         1.60130132779016   -3.08462625147473    3.07898526664210
C         1.53925169874712    2.25547848192602    1.32427762891057
C         1.58307980680845    2.21731610200466   -0.06634699122790
H         1.69363134991283    1.26711640682021   -0.56775005946650
C         1.45622775052517    3.37797749918477   -0.80294012580469
H         1.48681410338636    3.32073283508570   -1.88111109567392
C         1.28369354923883    4.60978389949974   -0.18028335477420
C         1.26038890044141    4.64343382925100    1.20881594402828
H         1.13771137767344    5.59099357554235    1.71529683310564
C         1.38754453977630    3.48731041187984    1.95527346916386
H         1.38657138425031    3.53699463570833    3.03586523447623
C         1.16839615748433    5.88306721032813   -0.98069648162044
H         0.98499275153996    6.70783186036286   -0.28311948465360
C         0.00311947006992    5.83374406402358   -1.97010215797960
H        -0.94256704693516    5.71751767868379   -1.44719948471005
H         0.11839668782088    5.00962318335769   -2.66976760451313
H        -0.03722632406372    6.76027690512431   -2.53881645528896
C         2.48632877411749    6.15924442474072   -1.71139719815830
H         3.31296642908833    6.19501388983107   -1.00455868332940
H         2.43473402322778    7.11224308542025   -2.23333053612734
H         2.69233552141804    5.37904970798561   -2.44024873293734
N        -1.22218299528150   -1.01034241708184    4.44775725710345
C        -1.94866111564592   -2.13515711800733    4.31135917017377
C        -3.14635078926526   -1.79634611734984    3.70490876380876
H        -3.95647821194148   -2.45311932309960    3.46121968554549
C        -3.08098974983319   -0.41380803014519    3.50152266906401
C        -1.48952285064019   -3.47534367355589    4.76142529496238
H        -2.27487244454876   -4.20637939023519    4.59031389701692
H        -1.24463976245884   -3.46000577858416    5.82173460189205
H        -0.59926798968088   -3.78130757040145    4.21498768507639
C        -4.01060915278761    0.51680862429925    2.87436418040710
C        -4.70198395154368    0.17416936609322    1.71661131225386
H        -4.59348352677569   -0.81934580955758    1.30693618209477
C        -5.49121224424807    1.10630162759608    1.07210151778129
H        -6.00469271406757    0.82072716873361    0.16567924913872
C        -5.62128781404029    2.40215833946855    1.56089163328890
C        -4.95020264647251    2.72997239850174    2.73267589571325
H        -5.04194164792419    3.72887840986402    3.13720272120149
C        -4.15879155142224    1.80385982836397    3.38364207976900
H        -3.65748095192017    2.07259188808110    4.30278459290389
C        -6.46877310030932    3.42783759540043    0.85001451433279
H        -6.47535376103376    4.34206642450761    1.45384154748526
C        -7.91334303438610    2.93993369307598    0.71128455670761
H        -8.31577539310453    2.66158450038625    1.68324053150196
H        -7.97046649216195    2.07503673365382    0.05529307128194
H        -8.53542209688032    3.72754722088332    0.29170267042691
C        -5.87870416357048    3.77099666871749   -0.52003549233366
H        -6.53670546293662    4.45904095137417   -1.04635452054771
H        -5.76156426743578    2.87560870310440   -1.12616001386093
H        -4.90867257905901    4.24971182743964   -0.41237703476222
N         0.26045324767445    0.36127333355009    5.92636843508479
C         0.88625622823693    0.42967767041860    7.11531217764466
C         0.66243238119570    1.68937056899461    7.64171071920675
H         1.00465874848270    2.07171040989500    8.58156558261718
C        -0.13372415622939    2.34530901839200    6.69817809611786
C         1.67311672358169   -0.68386620277559    7.70624738914624
H         2.06825555405717   -0.37743788975857    8.67090062453289
H         2.50207682490084   -0.95378598140375    7.05454473519393
H         1.04995660231534   -1.56533651983856    7.84369607232044
C        -0.72852670183785    3.67519700258149    6.76321658572813
C         0.01512441197613    4.78201958010938    7.16118141892543
H         1.05806467127787    4.65891607015518    7.41479266057742
C        -0.56667874248731    6.03380455592952    7.21009050680828
H         0.03416761808360    6.88074726851232    7.50656859818955
C        -1.90585929956527    6.21568133485764    6.88084600132112
C        -2.64880686441446    5.10244203710561    6.50605107647130
H        -3.69354434263423    5.22011562676103    6.25443873454177
C        -2.07141319025462    3.84857751170164    6.44343011151734
H        -2.66154211319562    2.98888487636614    6.16388906431295
C        -2.53971474869005    7.58421520769645    6.90188305584399
H        -3.60615699185144    7.46849469349046    6.67841924142699
C        -1.91963861915003    8.46813091285040    5.81655977506563
H        -2.03070161999994    8.00156535917695    4.84003897560892
H        -0.85974254236254    8.62229215638969    6.00430377171402
H        -2.41020900507372    9.43870292970708    5.79488502827154
C        -2.41126060947371    8.24007149203384    8.27771566436704
H        -2.83224668792126    7.59481555484319    9.04580227688164
H        -2.94442720012911    9.18812536319057    8.29172932254384
H        -1.36974997490444    8.43166087103282    8.52287816238971
B         0.22970859603097   -0.80014504220302    4.91767099684298
H         0.67076818243397   -1.78682601054618    5.38826960273699

