66
CSD_code = RAGCIN | q = 1 | S = 0 | Stoichiometry = C34H23ClN5O2Ru(1+) | MND = 6
Ru        0.58264825994473    6.21993360199794    3.76179741284669
Cl       -1.35584462111038    4.91648664583780    3.89953518333919
O        -6.74931850732462   12.40637742475028    9.09869321313335
H        -7.27764940305455   12.95593461281803    9.69905913337978
O        -5.15374266556222   12.74803576911287   10.62208891459439
N         1.55982816609028    4.85880295601601    2.63677432808456
N         2.32985626514112    7.20165219452791    3.53325283064283
N        -0.29631473475590    7.26294875860102    2.27628727792751
N        -0.36724821102163    7.46348622698018    4.81357038681219
C        -5.51280926433824   12.25209740925443    9.58547572315517
C         1.14086199604025    3.67915144471018    2.20078478054668
H         0.13400152356062    3.39649948129755    2.48373024777804
C         1.93673001606418    2.83788717592385    1.42150859315369
H         1.53629830235732    1.89053365229441    1.09851612055737
C         3.21432856603105    3.21914057787951    1.07381075984549
H         3.84550638326160    2.58418539973717    0.47195576355640
C         3.69066391264834    4.46317939192606    1.51998892736627
C         4.98898539388827    4.97844436793766    1.23453829364719
H         5.65290208446665    4.37444588543544    0.63523815604741
C         5.38641527632385    6.19014179044656    1.69817859553926
H         6.37215978168446    6.56817176897520    1.47478552057969
C         4.52329025220621    7.00163985810385    2.49125019288990
C         4.87046730159361    8.26254437034896    3.00220555111066
H         5.84584249939939    8.67716670841030    2.80207977554759
C         3.94351708793525    8.94858592692006    3.75718102379088
H         4.17412837443866    9.91909954873394    4.16595683660392
C         2.69041845224372    8.38940544310255    4.00046901825636
H         1.95811798753499    8.92429055823194    4.59312890233235
C         3.23325601763119    6.51613907989688    2.78850380270088
C         2.81689874597788    5.24584157839731    2.30213131908413
C        -0.20146335593629    7.08495553168587    0.96148082085524
H         0.47669587179221    6.30741938011816    0.62844208971307
C        -0.92231493428250    7.82761488918891    0.04468400283059
H        -0.81307930790119    7.63609672932304   -1.01008570580543
C        -1.78755280925181    8.80866041770532    0.51095080255407
H        -2.36902756089014    9.40359150400139   -0.17515152677623
C        -1.89382872627633    9.00300325427660    1.87518822965385
H        -2.55874354624888    9.75402632978638    2.26878005332157
C        -1.14214162950324    8.21510618862271    2.74457147745529
C        -1.21118815703047    8.31269105341753    4.20348841553671
C        -2.06515594624430    9.11464952797662    4.94888020730246
H        -2.73575956300308    9.80434046079666    4.46405786432748
C        -2.05731795179334    9.02045936961684    6.34294997421202
C        -1.20705595391783    8.08724935350649    6.94253919852073
H        -1.23592915134135    7.95036260104927    8.01071045270728
C        -0.38000445275377    7.30483104013379    6.14804116846852
C         0.48908134526646    6.21184839068184    6.58750370250770
C         0.66976122391754    5.84945213296889    7.92076466782096
H         0.17247584011909    6.40239033436486    8.70049080661420
C         1.47799517638449    4.77268425266994    8.23318685518839
H         1.62064990345136    4.47302415192253    9.25915128330631
C         2.09449595923727    4.08194441399511    7.19821594289531
H         2.72571996655085    3.23087070609121    7.39414499272623
C         1.87843931658419    4.49871238214489    5.89769832168165
H         2.34077632160615    3.97580250030263    5.06813529585251
N         1.10298576365997    5.53338314408933    5.58552682334243
C        -2.94819624813934    9.85094321164390    7.16027133142089
C        -4.25912019892218   10.09752815015230    6.75152407319057
H        -4.62775278484212    9.65363038617106    5.83888604180710
C        -5.10317992264900   10.86805578628765    7.52551696778933
H        -6.11941592083624   11.04893891325533    7.21362539450552
C        -4.64351714365521   11.41472747706472    8.72012979281892
C        -3.33431158418951   11.17666949030080    9.13186786516872
H        -2.99703894947215   11.61216737150520   10.05995485798987
C        -2.49637041031567   10.39793566425233    8.36209816460481
H        -1.47670571848413   10.23238390029997    8.67730270903254

