107
CSD_code = RAGCUX | q = 0 | S = 0 | Stoichiometry = C44H51BN8OSZn | MND = 5
Zn       -0.69637319587015    2.17212505659120    3.30384641486905
N        -2.56535051956903    1.42786396189212    3.23838939766758
N        -0.48001225585498    1.94340085148833    5.28838322351355
N         0.11467265872725    0.29566271065337    3.11363389969506
S         0.34377845312730    3.54344621880553    1.58955919715596
N        -1.35954163949573    4.20045459596845    3.41218087181222
C        -0.64621043140256    4.64691773778655    2.39189971445026
C        -1.48879313501918    6.90783289961008    2.62596128124101
C        -2.24484375764334    6.38402114252890    3.72158617442604
H        -2.88604757943213    7.06462736143335    4.25593051463523
C        -2.16155966080740    5.06854494978464    4.06912687050983
C        -2.96557684788792    4.51462228683924    5.20154693858572
H        -4.02707413085783    4.63520348538657    4.99451641051249
H        -2.73411308940387    5.05179968904187    6.11885171922216
H        -2.74713581082759    3.46060574196631    5.33903870854291
N        -0.69615073146218    5.93572624140047    2.00256356983068
H        -0.13564587637864    6.22651757422504    1.21041482982666
O        -1.47336590680157    8.05119069733009    2.21074785722534
N        -2.80215073499137    0.46909361554207    4.14624373040547
C        -4.12706349852518    0.33710361448392    4.33505965573379
C        -4.76326147538246    1.25829927784452    3.52232539756211
H        -5.81827052905962    1.40903587618877    3.41773434088086
C        -3.73784642118693    1.92776915282576    2.84563279144672
C        -4.73547666896109   -0.63710135673278    5.27786756124004
H        -5.81801328042264   -0.59792775404996    5.19406775746569
H        -4.45432996926011   -0.40296423155319    6.30347253613307
H        -4.39894067485769   -1.64821253163228    5.05866302040525
C        -3.82384926926658    3.02618451469948    1.89344983687905
C        -4.77834181749579    4.02724618239085    2.05557135473598
H        -5.48326885877749    3.96259816565779    2.87212605527993
C        -4.81845627734739    5.10640785299930    1.19592626885262
H        -5.56595054232436    5.87042418331687    1.34735867310594
C        -3.90921619365633    5.22348952171935    0.15043562475610
C        -2.97509811831907    4.20834830356600   -0.02160139105835
H        -2.26578770830819    4.26852055060975   -0.83536505389607
C        -2.93182858738232    3.12110802956472    0.82956681704778
H        -2.20979534017098    2.33351929571435    0.66528275691594
C        -3.96391123240704    6.37863361827550   -0.81771691709103
H        -3.05244883335962    6.35380589346004   -1.42569023949329
C        -4.03174260683929    7.73560077904764   -0.11706605725712
H        -3.99052872459829    8.53297149652849   -0.85596710956701
H        -3.19911532659304    7.86463294495204    0.56945536396996
H        -4.95799678792530    7.84287970419049    0.44163995148856
C        -5.16524482234892    6.19729799453401   -1.75208582409939
H        -5.19521691798705    6.99802956782867   -2.48769119830655
H        -6.09348237504633    6.21386742215905   -1.18525321983772
H        -5.10063750342247    5.24581247205669   -2.27610694674843
N        -0.96944314316159    0.79766093866206    5.78314634027986
C        -0.87982760790213    0.81122202451719    7.12613712073128
C        -0.32280457207817    2.02105126999424    7.50183874579869
H        -0.10137005333649    2.35002938055336    8.49652079351123
C        -0.08186927343440    2.70598069337631    6.30579175282701
C        -1.31420830659981   -0.31090124427029    7.99835685885835
H        -1.10658122313555   -0.06597655098347    9.03636578946177
H        -0.78351052025229   -1.22449133078790    7.73748718323605
H        -2.38067863704788   -0.49799714993779    7.88711268987803
C         0.44819300203488    4.04342700901657    6.07700164691494
C         0.10463302450424    5.09855601454541    6.91824575467565
H        -0.51618518139299    4.90913645097895    7.78245373429708
C         0.52976220502833    6.38241048621307    6.64143498859393
H         0.24190874855491    7.18503983227088    7.30425207386110
C         1.30978500849247    6.65535558722281    5.52265164488239
C         1.67630037784456    5.59323031398824    4.70504743377602
H         2.29640478544282    5.77575338103943    3.83834203244919
C         1.25888303473792    4.30499878583597    4.97689988029025
H         1.57264574967850    3.49030357381153    4.33917404439211
C         1.77857051268846    8.05547687638769    5.21704739320220
H         2.33975616574550    8.02851720967882    4.27641588977944
C         2.72050434045689    8.54886107409689    6.31937661680419
H         3.12276555245064    9.52564367712283    6.06027289887165
H         3.54928927948092    7.85587637216873    6.44976193694342
H         2.19337098728135    8.63521791175578    7.26642468283940
C         0.60258486314475    9.01752560853915    5.04050449664674
H         0.97129434677048   10.01634087586149    4.81787786538086
H         0.00231654877660    9.06941831582362    5.94544317635399
H        -0.03710442064009    8.70098714863480    4.22080902673233
N        -0.61011828333597   -0.63118808149561    3.76475744998626
C        -0.28064083047739   -1.85952027482449    3.32471368159410
C         0.69506051145744   -1.71408429938792    2.35678132018004
H         1.19082906577218   -2.49103794193303    1.81174166679595
C         0.92261109460291   -0.33680583489675    2.26274374323839
C        -0.90005321046097   -3.11458899241632    3.82452025989478
H        -0.71977241749549   -3.23597275465983    4.89104119671780
H        -0.47470345464345   -3.96385150847886    3.29691996911161
H        -1.97631854991414   -3.10058361991956    3.66247053020185
C         1.91007769356965    0.35896882639679    1.44677718764060
C         2.11739695262380    0.00236494020503    0.11806384212005
H         1.52074323869498   -0.78430053980592   -0.32101927171183
C         3.05887167148645    0.66437024609457   -0.64409810312221
H         3.19264356722291    0.37939106220079   -1.67734806075752
C         3.82526198520140    1.69028546853875   -0.10278092993214
C         3.62845693775041    2.02708553238383    1.23014719828420
H         4.21947858416816    2.81655214480466    1.67260357086960
C         2.68586701294560    1.37327891280051    1.99833571167146
H         2.55486210116221    1.63235276551345    3.03891663321995
C         4.84010676734210    2.43159484024027   -0.93698736067780
H         5.32966550928156    3.17384502115562   -0.29663927488167
C         5.91481583874536    1.48375789250629   -1.47321305061717
H         6.40026502168991    0.95866195695052   -0.65323229709638
H         6.66986332683412    2.04306424630465   -2.02168315418293
H         5.48170508815029    0.74596214879435   -2.14390835003318
C         4.14723715895600    3.17457761993731   -2.08136192386897
H         3.37318482465880    3.82942487931683   -1.68779487587701
H         3.68392809884683    2.47393777054401   -2.77153305055750
H         4.86730064909248    3.77555252128222   -2.63290358878901
B        -1.62230706898636   -0.23586967641084    4.84374777964003
H        -1.98978992604725   -1.17751716677225    5.44971392795881

