59
CSD_code = RAGGUE | q = 1 | S = 0 | Stoichiometry = C26H24N7RuS(1+) | MND = 6
Ru        9.60113545304041   10.51610067048764   11.41292777416459
S        10.37515608808226   10.87852767198228   13.67808291602488
N         9.24215212214447    8.73500074305764   12.07817334741426
N         8.82901976368072    9.59865982973492    9.73480895945745
H         8.64618547574907    9.95484632447775    8.79797259121305
N         9.96763489842140   12.26363079020937   10.76674664441175
N         9.44865493364841    8.35891214258315   13.33560043311125
N        11.49155113652095   10.24293929707716   10.79788168365798
C         9.94909982642932    9.25514227953606   14.15263414672580
C         8.77349360684756    7.82838820491823   11.22932658049911
N         7.85506705396578   11.39426231807105   11.85404252548012
C         8.53729911627380    8.33851673495566    9.92231256226485
N        10.19086723938606    8.98263233358297   15.44278258058205
H        10.62884305066489    9.74338509895523   15.95010524979502
C         5.64094728306107   11.56211572885187   12.72792321951505
H         4.81077019858784   11.07270159062680   13.21002284583273
C        12.06259790933710   11.36583338788768   10.29029786394200
C         9.95802435999289    7.83219011256165   16.19925816409682
C         9.03358063388893   13.22081070243874   10.90523812369035
C        12.21995978825024    9.12883438112967   10.85627537131591
H        11.73182550832355    8.25485481591447   11.27260684250485
C        13.53127829837668    9.06202103731332   10.42526429122763
H        14.07570086262055    8.13518070097900   10.50086455639480
C        13.37967884114890   11.36531553652289    9.83548849951322
H        13.81010088424426   12.26950836291773    9.43782728772104
C        14.12565763490495   10.20396202321574    9.90297766719626
H        15.14762802072831   10.18704303941244    9.55978987797593
C        11.19190162737454   12.53951032319069   10.28445026160891
C        11.51421122998708   13.83152019339525    9.87887780337283
H        12.49321930182539   14.06221050069884    9.49373219981854
C         9.30327507447065   14.52945627185758   10.51446658578008
H         8.56196458008147   15.30308496359098   10.62397016954074
C        10.55263409330975   14.82589896015613    9.98876965657734
H        10.78136890311594   15.83273853269549    9.67874092774664
C         7.81021850556644   12.71009498679631   11.51973933236609
C         6.79055305302396   10.85036223144115   12.44286040850252
H         6.86747097592614    9.80023870578045   12.70153337924451
C         6.67961831259668   13.48330502240733   11.77573892700640
H         6.66875833897408   14.52495917158643   11.50036689616979
C         7.97819045451449    7.47581987998724    8.83882031156709
H         7.76408042355094    8.06072221639129    7.94727006712425
H         7.06303162899531    6.99192654221554    9.17380405299311
H         8.68950794642122    6.69331399222816    8.57721424805869
C        10.47245186927279    7.80721518999794   17.49556614250556
H        11.02935847552142    8.65588705057443   17.86646422094710
C         8.50846073367538    6.41162336270938   11.62977997633529
H         9.13471567291040    6.15587994043567   12.48104298576232
H         8.71977489983048    5.73044020129365   10.81058148835407
H         7.46682364257445    6.28002360755165   11.92358995953387
C         9.23236643835595    6.74288205159209   15.72817021928714
H         8.82169521325469    6.77363072462127   14.73427509625567
C        10.27370042445543    6.70323611216598   18.30098480403119
H        10.67722378655180    6.69305022956456   19.30164260853569
C         9.55892758213218    5.61458938232982   17.82707636394827
H         9.40454661438922    4.75264969833598   18.45684379475496
C         9.03996931386406    5.64236832966076   16.54358676176121
H         8.47570744812752    4.80039574821062   16.17225445703952
C         5.58171964121195   12.90757547204960   12.38628416547387
H         4.70024380582275   13.49217454509263   12.59536912226436

