35
CSD_code = RAGHAI | q = 0 | S = 0 | Stoichiometry = C14H12Cl2N2O4Pd | MND = 4
Pd       -0.70860549462912    1.43095731604704    4.76815673264545
Cl       -0.43828613574278    0.89770329582981    2.64300701109123
Cl       -1.98835609286673    3.12693341906740    4.16172233780095
N         0.32433486557960   -0.17795934399066    5.47859856647849
C         0.72492710368882   -1.23550951500118    4.77520852853256
C         1.09316169957691   -2.42546940513961    5.37843999898601
C         0.92831074810323   -2.55731662049977    6.74957201692998
C         0.47834108742640   -1.46714443049693    7.48414552710600
C         0.27576775119983   -0.24807776657103    6.82289484814863
N        -0.75540450440380    1.88244407935252    6.74712296016797
C        -1.15736236205243    3.03427792397691    7.28457084931857
C        -0.84259702715464    3.39130120964583    8.58293254113136
C         0.00152557900337    2.57019905852305    9.31926663314091
C         0.43754740855740    1.37687350366841    8.75883149886334
C        -0.02899963110054    1.02154985222962    7.48468038782841
C         0.12837521312799   -1.68075663496417    8.91783492437858
O         0.72874043238051   -2.40114159607662    9.67138317563333
O        -0.99896572467903   -1.03382684736351    9.23374021916406
C        -1.47867127760784   -1.19436650506645   10.56418335016285
C         1.50854010819145    0.58000470750154    9.42983604257727
O         2.45612124009476    0.12217591578282    8.84484028227573
O         1.31917951207514    0.49446605615527   10.74495471340927
C         2.29615556777077   -0.25452809027217   11.46606891661848
H         0.74380436848652   -1.10223389358272    3.69857211767256
H         1.45880755223533   -3.24507193919383    4.78198404719851
H         1.12032986798573   -3.48981740769505    7.25769921814682
H        -1.74608121996014    3.67353049498991    6.63469613375244
H        -1.21304721408903    4.31570656657980    8.99491512822915
H         0.34159150999229    2.85480767898144   10.30280062108773
H        -1.38089317188247   -2.23519246885848   10.87747256472366
H        -0.90611668361323   -0.55782494599886   11.24143473855396
H        -2.52204575933726   -0.89119843102224   10.54897681464793
H         2.20364663244956   -1.31266161503362   11.21139981541868
H         3.29868787805766    0.08886385047724   11.20763208867096
H         2.08703617312546   -0.09039747198107   12.51972464952729

