39
CSD_code = RAGKIV | q = 0 | S = 0 | Stoichiometry = C16H17Cl2N3Zn | MND = 4
Zn       -3.08965751884300   -2.43382738313748    1.63525028958315
Cl       -3.71447336202309   -2.63317493269317    3.75387374980916
Cl       -3.90652516526470   -3.05075520309907   -0.28319064119054
N        -1.82185807044547   -0.80025852730646    1.58466107109113
N        -1.15971009013767   -3.37275923790107    2.06739391422802
N         0.22574392371863   -0.03751797150771    1.96856991132543
C        -1.78321911806282    0.49532117445170    1.16650170422160
C        -2.76788926906239    1.29245423773656    0.59034957004207
H        -3.75457226566580    0.89566318737924    0.41281306836331
C        -2.41678274516350    2.58219858957364    0.26073382095378
H        -3.14889598118349    3.23491337206393   -0.18897322294632
C        -1.12720793223929    3.07461262644349    0.49172949087397
H        -0.90032015636331    4.09295734510819    0.21502930743193
C        -0.14061480638916    2.29747313962555    1.06163260029066
H         0.84976440324291    2.68991240854340    1.23262680450451
C        -0.48518903154782    0.99567723494587    1.40191160826340
C        -0.62811144285858   -1.09181109760392    2.06525199034834
C        -0.36247314137939   -2.42818380034347    2.58346933393004
C         0.57716149253940   -2.73072735512616    3.56610595377790
H         1.15965706741569   -1.95848752366143    4.03863077760168
C         0.71193334599770   -4.04632169930509    3.97981621435249
H         1.42544769048160   -4.30071258769719    4.74923697556390
C        -0.08609837512479   -5.01991961001882    3.40434860198410
H        -0.00665435972279   -6.05444725043980    3.69589041925819
C        -1.02280912664821   -4.62596185888908    2.46016339657948
H        -1.69445884364624   -5.33771954206957    2.00066818409639
C         1.62488295495152    0.04628375115241    2.30344482670620
H         2.12116981686000    0.62410551889313    1.51741361324925
H         2.05210866183720   -0.95900139429551    2.30116456540904
C         1.84629161472361    0.73099216774105    3.65581479013383
H         1.27479734651856    0.21368097891945    4.43002053338952
H         1.46612507598564    1.75308011802462    3.60497403318401
C         3.32531447792363    0.75253064294448    4.03468816420540
H         3.88996465020650    1.27022178085723    3.25634246054117
H         3.70238589404725   -0.27152245585556    4.08937859963217
C         3.54916371479207    1.44774779320827    5.37167589780492
H         4.60597710163735    1.45232516276871    5.62509456424298
H         3.20187864923991    2.47728746663802    5.32968053587438
H         3.00815291965200    0.93677073393210    6.16471252128895

