35
CSD_code = RAGMES | q = 0 | S = 0 | Stoichiometry = C14H16CrO4 | MND = 10
Cr        5.01410718534228    2.87070136033651    3.70033032427055
O         7.12860181084292   -0.06264261457073    4.07353876898649
O         5.94437173831641    0.37749773081640    5.95265181826238
O         4.06928152750474    4.44267046598033    6.02082124393050
O         3.16309187360436    0.92822152674230    4.93640238703566
C         4.86424655948039    2.18252133204624    1.52768014663865
C         6.16020235979101    2.69831987943605    1.68036003767551
C         6.32269639557350    3.97871560273314    2.23681960781467
C         5.21728209192429    4.78728773510688    2.53498570620340
C         3.92604781343963    4.33421757146301    2.24206984880747
C         3.74814226546206    3.02058810059210    1.80835459505458
C         4.64678126341196    0.80518654918729    0.97584237131094
C         7.35201515451021    1.87286464433399    1.30954019660374
C         6.13846585250952    3.11837369312867    5.65703038357892
C         6.71199377250750    2.17389754831234    4.65279309724657
C         6.64210077401862    0.74368275220869    4.85081052620947
C         5.66213125027703   -1.00413435757950    6.10962281357110
C         4.67681090952942    3.72049125330012    5.30159569606171
C         3.94167992947055    1.64538722401217    4.48299574346841
H         7.32143145143630    4.38538264871236    2.34211821139289
H         5.36766819752076    5.80123561680938    2.87993266290132
H         3.07306028054238    4.98650148823393    2.37763295985677
H         2.75327775769198    2.66568147949908    1.55903250210038
H         3.60040585108811    0.52078474140427    1.05489845548986
H         4.93901912834113    0.75812829266974   -0.07489044438657
H         5.24530479979528    0.07963844650254    1.52373812064604
H         7.43404054423965    1.01535458503449    1.98132626931037
H         7.25789053726191    1.49283659232716    0.29305978947424
H         8.26896360217360    2.45407435833242    1.37961503353305
H         6.77598563302691    3.99355480483912    5.81731976066126
H         5.95103128799169    2.61290157397911    6.61136130164514
H         7.65284890079395    2.46899175866869    4.19258051547043
H         4.64186603759308   -1.20064807907946    5.77502180504083
H         6.36565961919890   -1.59467779869401    5.51935394836956
H         5.75859584378885   -1.23788850682121    7.16845379576699

