47
CSD_code = RAGMAO | q = 0 | S = 0 | Stoichiometry = C18H24CrO4 | MND = 10
Cr        6.04422429978069    7.88086419190103    4.77663899377008
O         6.36782758067934    7.54338220834155    7.69112962576945
O         8.87238335879628    7.08740008833608    4.99566302102423
C         5.57194690014115    8.60851715205003    2.65783932595285
C         4.41295754730183    8.79163002998513    3.42998429135934
C         4.49431756724290    9.45494950635368    4.67328853729728
C         5.69226515646661   10.15626307518776    5.02713043618759
C         6.82343436837112   10.05664049227915    4.20498608788639
C         6.80576047114395    9.13354550938342    3.12499094451005
C         5.48185994565261    7.94052960596242    1.31000188796458
C         3.07942444917328    8.24869704866176    2.99514317435688
C         3.25934415510914    9.59829494519224    5.52188868947362
C         5.66107900939520   11.03740150226562    6.24799471927572
C         8.08017995721171   10.83891248064376    4.47110945543367
C         8.08147432180035    8.87378242938973    2.37212502527108
C         6.18788820046371    7.59902961766613    6.55571554513909
C         7.68720330436714    7.04059704857587    4.88299319109998
O         5.14841173028471    4.81569370861489    6.50450568650191
O         3.30077269467486    5.50187411416145    5.40014439182880
C         6.84933140110426    5.78097363740958    4.41305173137157
C         5.35725422896160    5.98066050924405    4.43385064057497
C         4.65745080863126    5.36090929128783    5.53948271573473
C         2.53383653650860    5.03312376920153    6.49530539435754
H         6.39516947362176    8.06429910607059    0.73776004930448
H         5.28232345741272    6.87207022322782    1.40401850235027
H         4.67638349861085    8.38210923713340    0.72316554195367
H         2.31717528331479    9.02467389869505    3.05724269173812
H         3.09726895381994    7.87307134074741    1.97792930875103
H         2.78277306194029    7.42719686369768    3.64817528278246
H         2.65920205032804   10.45134699618913    5.19651488645905
H         2.64574263261106    8.70422882275607    5.45796110925372
H         3.51734722204882    9.74327790133164    6.56599761190001
H         4.87149400385722   11.78416330090842    6.16020824755202
H         5.46742309143917   10.43482564268060    7.13419385265763
H         6.60302791691846   11.54792567540567    6.41103028263739
H         7.86707451362486   11.78797342403866    4.95490650034894
H         8.75283814347130   10.26811365693920    5.11140639232346
H         8.59698882547481   11.05788918409295    3.54026141927940
H         8.25619291225621    9.62837352157710    1.60230584520731
H         8.92591968914410    8.87606576565768    3.05652939982431
H         8.06366995792694    7.89656694234628    1.89624140209900
H         7.23059372979637    5.49280214503966    3.42736268697302
H         7.11657986946411    5.01666234934174    5.15622172085203
H         4.83391023639951    5.84072557705314    3.48971898655450
H         2.82522209734302    5.55424629376195    7.40980349673827
H         1.49305502057649    5.23518589755430    6.25207186360885
H         2.69049636533691    3.96213427166306    6.64070940671029

