115
CSD_code = RAGQIA | q = 1 | S = 0 | Stoichiometry = C52H56IrO4P2(1+) | MND = 8
Ir        4.09986173043757    4.80234821846186    2.67244400071448
P         4.27539006008743    3.22362861497323    0.96865093207276
P         6.23783539688633    4.46660917414860    3.61275880088821
O         3.99388824512550    2.99707993130173    3.81818432122543
O         4.21517965406255    0.46478201409348   -0.10772151803000
O         4.09340788992844    3.50310378501290   -2.15294822420069
O         1.75660726833792    2.73499319649074    1.79731223870211
C         3.98289187942316    6.92463466654276    2.10317062956149
C         2.82363895159961    6.28279944286497    1.54902362584214
C         1.99523352518019    5.85439213867173    2.63039011826075
C         2.62125753955636    6.24519980912441    3.85068826227515
C         3.84235732840277    6.90080716946524    3.54078188374339
C         2.41381021103952    6.33465008967495    0.11311877413806
C         0.57601834611818    5.40838289129934    2.53474555304185
C         1.97295203285951    6.14606175675046    5.19084425891324
C         4.67120252105949    7.68559305598835    4.50521408689905
C         4.89043597914699    7.84117564134588    1.34464135478425
C         4.23377145749704    1.66946648505905    1.87677176165588
C         4.04860252827538    1.82057834592113    3.26126808076117
C         3.90086402436975    0.64916487834092    4.02672793159509
C         3.90151631200563   -0.57997331503603    3.40904057001585
C         4.01999581604659   -0.71652206356141    2.03016278407468
C         4.15782274820509    0.42244559027284    1.25281330542993
C         4.13509107419933   -0.74336316476167   -0.82634885152621
C         2.88903850098848    3.04105292822600   -0.19440073002625
C         2.92834293837850    3.11153717962142   -1.59264203667851
C         1.78584442691895    2.78257443893776   -2.31909053076989
C         0.62826225269957    2.39887312840691   -1.66899820222922
C         0.56240303192144    2.35272809167152   -0.28791486007887
C         1.69089850036456    2.69072219989605    0.44455076667724
C         4.24108901463878    3.45048858521859   -3.55442615301214
C         0.81430702256830    2.00185358033423    2.54961681019967
C         5.80250410036559    3.27841084273590   -0.01780508175678
C         6.66768609070841    2.19981525206012   -0.12714013363105
C         7.80325969704821    2.29990208688658   -0.91453835732109
C         8.10013797110013    3.48138495775358   -1.56969443112595
C         7.26018974539795    4.57659681847424   -1.43123427643877
C         6.12233534966960    4.47535223222316   -0.65568098186654
C         7.25509558561922    3.00505624880254    3.21222658859704
C         6.98589435831576    1.81767068694955    3.89308005248437
C         7.72163466072309    0.68024580353147    3.63813734375407
C         8.76872778231752    0.69625417439231    2.72045835378351
C         9.05819175370105    1.89131054945939    2.07582300767425
C         8.30667503781349    3.03006444186234    2.30390695486665
C         9.57226304632769   -0.53909173990420    2.46649832790790
C         7.38330385807128    5.84611676482692    3.28184582360783
C         7.65678234627081    6.15390601774167    1.95077025172538
C         8.53358010435935    7.17105012637555    1.62702543706883
C         9.14158962030066    7.93090043979449    2.62143714177439
C         8.83432911724704    7.64563800486020    3.94720406575632
C         7.96811977739802    6.61969804554554    4.27845804449578
C        10.10549971928462    9.01936015937425    2.27459369813506
C         6.22690027678941    4.34436472981265    5.42567438584542
C         7.42706596547427    4.09409631920470    6.09245461402431
C         7.45078988791379    4.01636725223331    7.46938215519837
C         6.28679293688308    4.17829515756406    8.21833672040350
C         5.09454122576807    4.41068088568890    7.54508599286755
C         5.06262425105759    4.49236154635182    6.16424922595375
C         6.33602463373247    4.10110255931020    9.71067629731107
H         3.26543415377438    6.22805182009381   -0.55482332370140
H         1.94680333752246    7.30079395111342   -0.08729339039254
H         1.69582849460624    5.55358256578035   -0.12460224793218
H        -0.07483976022807    6.27971992144274    2.63909663958207
H         0.33181301436078    4.71239157205232    3.33291736423207
H         0.36375072380840    4.94481688624451    1.57566751093739
H         2.63363987324527    6.49556693858102    5.97938149075746
H         1.66996565801848    5.12269724913409    5.40963796121759
H         1.07341346133152    6.76398779927041    5.19950370242492
H         5.64883889499704    7.91483645655814    4.08982868371617
H         4.81323083638533    7.15004688026581    5.44209152638131
H         4.16679689303144    8.62790922993268    4.72610380504676
H         5.85534125672917    7.94658336390831    1.83293243704759
H         4.42988393275166    8.82925807386103    1.28653220762677
H         5.05433334229611    7.48975598165475    0.32940410865776
H         3.76539249896141    0.73725288453032    5.09341777050247
H         3.78255476324060   -1.46976514315272    4.00923564498389
H         3.98015054664988   -1.69757686895723    1.58657998389658
H         3.18581115535722   -1.25555429070811   -0.64276649804671
H         4.19737233490787   -0.46633156393983   -1.87722115516783
H         4.96408847352485   -1.41355705110063   -0.57964801173654
H         1.79572414933520    2.81625737650434   -3.39583403060939
H        -0.24220126687744    2.13730725326050   -2.25039790678201
H        -0.35261503367878    2.05959667892545    0.20004407895960
H         4.06145172963445    2.44347330227159   -3.93994248130460
H         3.57650915909740    4.15991468642846   -4.05660669615233
H         5.27641495507268    3.72942687036453   -3.74408935350844
H        -0.18506265312069    2.44261778982168    2.48842472538378
H         0.77487305934823    0.96005357827830    2.22054663912071
H         1.16797175870102    2.03715609625308    3.57829678018913
H         6.45851457783859    1.28255743405968    0.39836867731898
H         8.45884823255211    1.44793798319476   -1.01487691014787
H         8.98428218858447    3.55358912739064   -2.18513467166980
H         7.49546562698836    5.50512723090440   -1.93102045326405
H         5.45054638908230    5.31597632248993   -0.55663528820760
H         6.20581456106160    1.79530806277346    4.63718676225038
H         7.49010652977147   -0.23292170180353    4.16642008001906
H         9.88422267375999    1.93696926591260    1.38125373681692
H         8.56300068805944    3.93979637500820    1.78388307060880
H         8.91905208396609   -1.39613855323228    2.31470397065074
H        10.20474479766224   -0.75612375203580    3.32692785175998
H        10.21079917748164   -0.42026779991295    1.59529299972128
H         7.16301224346929    5.59256314863949    1.17015847489130
H         8.74307850982192    7.38595823480361    0.58910359142801
H         9.28000652346744    8.23657607912611    4.73395939624992
H         7.74756493890399    6.42765374203406    5.31773825444805
H        11.11513604066141    8.61167821864655    2.21840780078535
H        10.10219594679148    9.79931472810652    3.03179302849958
H         9.86813317963238    9.45862918083374    1.30880720542925
H         8.33815183544448    3.95502911251108    5.52622872973403
H         8.38439725032160    3.82321667298596    7.97739084760416
H         4.17890183182960    4.52267951083968    8.10809597835171
H         4.12853332349826    4.63465505644479    5.64750106085986
H         6.86797739684145    3.20678541962018   10.02944015532959
H         5.33651176620582    4.08677980403198   10.13666322989766
H         6.86977483524554    4.96222195968190   10.11226348954920

