59
CSD_code = RAGSUO | q = 0 | S = 0 | Stoichiometry = C20H36NPPt | MND = 4
Pt        4.61051999118018    1.99770225221405    5.38574056215955
C         6.14281963898588    1.63684265762650    6.81543739939504
H         6.31853543840599    0.60682385090573    7.13609860920905
H         6.05334974459026    2.20547933105043    7.74998393760980
H         7.09276002062731    1.95311455556721    6.35510663235699
P         3.93443213496531   -0.11450699987982    5.08340497955970
C         3.33592729954130   -1.04271643157188    6.62140344317856
C         4.47051558498879   -1.75380750339516    7.35359067112391
H         5.31043956265381   -1.08258481306046    7.50172150597011
H         4.80670757178067   -2.63078957642104    6.80579035507137
H         4.12415330212453   -2.08475455505540    8.33266553379588
C         2.79913712662409    0.08749992282907    7.50470226753309
H         2.46379326844675   -0.29736964638454    8.46666471145004
H         1.95933799981239    0.59087245638245    7.02659505357785
H         3.58955652324014    0.82276153334338    7.67184798800274
C         2.22745778159555   -2.05651085310846    6.33264396593442
H         2.54782044223964   -2.80615801717961    5.61474075754644
H         1.32607513323615   -1.58117834470058    5.95680748898005
H         1.96705567589004   -2.56905751382435    7.25867978368898
C         5.04897930978657   -1.14852779347828    3.97092549682995
C         5.16891521557762   -0.32522240333609    2.68654101572937
H         5.93148398196017   -0.75091924904827    2.03543259931751
H         5.45745212035025    0.69899844414235    2.93862657747732
H         4.23074280905161   -0.28927766195320    2.13862193459362
C         4.52446538476798   -2.54635285438140    3.65983510874935
H         3.51737494046719   -2.51426036742394    3.24981522125203
H         4.52484559220807   -3.17598256499298    4.54648126470710
H         5.17018820212264   -3.01595046629224    2.91802346269596
C         6.43774835600933   -1.22591334099871    4.60275739699635
H         6.44961427276958   -1.85761241124464    5.48540854533976
H         6.76065999200994   -0.22527183934070    4.88397632236555
H         7.14999771241356   -1.63303373963254    3.88578342509434
C         3.36142654470037    2.31130287353224    3.73009941907385
C         2.36784624006702    0.06862227851334    4.12502747832333
H         2.11954108485088   -0.82329858133210    3.54497918549510
H         1.56047721492410    0.24117973083056    4.84333185717476
C         2.51904300938857    1.29268283026185    3.26521149589954
C         1.83463583671815    1.38798442075679    2.06263402699046
H         1.18268327576391    0.58365689065399    1.74383774510532
C         1.99350699743513    2.50525395303023    1.26373902241634
H         1.46659263835455    2.58508794500952    0.32330418167045
C         2.84267700817326    3.51417794078731    1.67812702386971
H         2.98765397054367    4.38537263276085    1.05137921893855
C         3.51821572011426    3.41586100657196    2.88627130394989
C         4.42514360772640    4.54037920538694    3.32050894637512
H         4.31083579793916    5.39410420656853    2.64869168331788
H         5.46854788986220    4.21545556167149    3.26850396659573
C         4.07822695447296    4.96562572449164    4.74676496465250
H         4.32556847942577    6.02720513090615    4.90263977568203
H         2.99818309365966    4.85187687457725    4.87562461482624
N         4.76073269253108    4.15902643140205    5.77004425895664
C         6.10614225332746    4.69967381805280    5.95969822689335
H         6.06145934505202    5.75923580144325    6.24897375618601
H         6.67904442192498    4.61530156577896    5.03727924455949
H         6.62898505691723    4.15216395870090    6.73894759491400
C         4.01491322330586    4.28839865568639    7.02569914357697
H         4.55035828065704    3.79299534556644    7.83368038452869
H         3.03235656326538    3.82254130244994    6.91925028946334
H         3.88144066847318    5.34559643853669    7.29469717325569

