27
CSD_code = RAGWIH | q = 1 | S = 0 | Stoichiometry = C4H16Cl2N4Rh(1+) | MND = 6
Rh        3.20623579555168    4.40525144493016    5.38387033691059
Cl        4.92586014239259    4.02186215411171    3.86203534871713
Cl        1.48645809487488    4.78850194751828    6.90630829009455
N         3.20749925223038    2.38942240645583    5.84164233027441
N         1.79547508160581    3.81698125828811    3.99217483164507
N         3.25503381619301    6.40979800993600    4.88199635116059
N         4.56568158180360    5.00504994775268    6.82137033647019
C         2.01357449977061    1.76680334625427    5.24282753091173
C         1.85656092242362    2.35196681660990    3.84453135533687
C         3.87367602668209    7.15975311320132    5.98942577666576
C         5.06852499756651    6.34490822467445    6.46953521835544
H         1.14657416915794    2.03107433258454    5.85499366652975
H         2.10488050784779    0.67746841665483    5.20332262104762
H         2.73329924984472    2.10507018920713    3.23897019396804
H         0.96087870719287    1.95951619440091    3.35425096909932
H         3.13865791360006    7.24898605448006    6.79446303030120
H         4.18304525023467    8.16055955375947    5.67428509871999
H         5.79328980841133    6.23639007682068    5.65760306538210
H         5.55502446238524    6.82842327904764    7.32167568375429
H         3.23847193655491    2.17138590879669    6.83940983034665
H         4.04621477384997    1.99730981089286    5.40088556861956
H         0.88428263510936    4.07577031456478    4.38482531436309
H         1.88314280934993    4.25398192034390    3.07272445529060
H         2.34818777305272    6.82375047277386    4.65769494043313
H         3.85455741150657    6.48176859844888    4.05322012020120
H         5.35575295258607    4.37253764188571    6.96206792107600
H         4.04185942822106    5.06490856560529    7.70078981432476

