27
CSD_code = RAGWAZ | q = 1 | S = 0 | Stoichiometry = C4H16Cl2N4Rh(1+) | MND = 6
Rh        3.77265211734905    3.89847561091571    4.19562851440386
Cl        4.27015992001033    4.07093008082801    1.92769199978637
N         1.89432199952274    4.71438159316322    3.91130706782513
N         2.77653365118821    2.13543542225444    3.77655206760886
C         1.04195158185302    3.72014358329518    3.23576954363679
C         1.32609735187068    2.37176092910933    3.88612128563138
H         1.32368153918294    3.68805430968087    2.17943510235677
H        -0.01806199488618    3.97805808476725    3.31581443869527
H         1.52044564465657    4.89541017666698    4.84926504648275
H         1.87370361544608    5.59008103249659    3.38551754773259
H         3.03400570884264    1.33872545157707    4.36202688797468
H         3.00672565942819    1.90508524169585    2.80380221711997
H         0.75108208850607    1.57565885669346    3.40425179386934
H         1.06417008820332    2.41049234748340    4.94735047099497
Cl        3.27265167701102    3.72074483219799    6.46321326271089
N         5.64985577414729    3.08032488910854    4.48048707501130
N         4.76815723671954    5.66076236329932    4.61542777481278
C         6.50207358365846    4.07482100773559    5.15584317181188
C         6.21831966633287    5.42340658103792    4.50564675571413
H         6.22046069048595    4.10695767516518    6.21219993854681
H         7.56205477835826    3.81678384761822    5.07576805126112
H         6.02375056560123    2.89939448751028    3.54252153593696
H         5.67057500490445    2.20463289732694    5.00631065038425
H         4.51075724468406    6.45738819714978    4.02987663921833
H         4.53787128112309    5.89083422989958    5.58819946164648
H         6.79360906473497    6.21931021080413    4.98748479814764
H         6.48009446106530    5.38464606051907    3.44438690067878

