59
CSD_code = RAGYOP | q = 1 | S = 0 | Stoichiometry = C24H20Cl2N4O8Rh(1+) | MND = 6
Rh        6.30836435132975   10.14286684389587    2.96955574357941
Cl        8.12867740602538    9.96552715553395    4.42719609670706
Cl        4.49374446216329   10.32249960541177    1.50485922142324
N         7.40049884101955    9.26602333425298    1.50185765333633
C         8.19389422959907    8.22319964153903    1.77052485984362
H         8.24762033794392    7.89151042728558    2.79896769643509
C         8.94919306669000    7.59429207054642    0.79993945321358
H         9.58275980059322    6.75573749429931    1.04339202043644
C         8.88822095539800    8.05547021722946   -0.51137504532552
C         8.06377657368601    9.13990186066903   -0.78911065440612
H         7.98367870623396    9.52750162300624   -1.79159881380145
C         7.34249879760544    9.71199165908644    0.24285808104738
H         6.67780196339871   10.54163670642016    0.04123128998444
C         9.70183554016053    7.36482540953749   -1.56322095149527
O         9.62152844158347    7.96689782606554   -2.74566196360665
O        10.34763906705192    6.37685002887479   -1.34731445760311
N         5.64409194025192    8.31896360236209    3.56756483520076
C         5.69306112053664    7.96304807995016    4.85605058114850
H         6.13585296475303    8.66596940308971    5.54917335606344
C         5.23210719806461    6.74199963198776    5.30820604431321
H         5.28471070010172    6.47855667373657    6.35302589346213
C         4.69166654152603    5.84123189158542    4.39587635085627
C         4.64525073754294    6.21044202162372    3.05643608645676
H         4.23410766017654    5.54379996161113    2.31605793015020
C         5.13186448169803    7.45161932170156    2.68859457474703
H         5.08282636319732    7.76521050535798    1.65422841434708
C         4.18061702747640    4.52261398949340    4.89226396331310
O         4.16739480709133    4.22162356573736    6.05342737339334
O         3.74873460577460    3.74097951353294    3.90803929781528
N         5.21338489634836   11.01343906445519    4.44201494097267
C         3.92465229653230   10.69850920852450    4.61302553878733
H         3.48729187888312    9.99846323024740    3.91358496291005
C         3.15068419696248   11.25139370159142    5.61464314848856
H         2.11265345584755   10.98131462039945    5.73022549051197
C         3.72553578541538   12.17111166844385    6.48608548023456
C         5.06388129533948   12.50063590462409    6.30491735405393
H         5.54948124193723   13.20751002764836    6.95764678873836
C         5.76542783528734   11.90205436154050    5.27435851100555
H         6.81383560809673   12.12879846075929    5.13258919688378
C         2.88627533121900   12.75943171914187    7.57957117528059
O         1.74936549976132   12.43282256450140    7.77912426076193
O         3.54259614682582   13.67035091299171    8.29071617539283
N         6.96522406751188   11.96894665905909    2.37725374378858
C         6.10502963518492   12.97433667915377    2.18130402453693
H         5.05345905729751   12.76371945477312    2.32419763921796
C         6.51110649477724   14.23301335548597    1.78259193947259
H         5.79636402477089   15.02636738611855    1.62913138323476
C         7.86568062966127   14.47482444060828    1.57635785827140
C         8.75864090249399   13.42899083628086    1.78042029278577
H         9.81689578202991   13.57311241127930    1.63581554382379
C         8.26691717116069   12.19884432232734    2.17716821304436
H         8.94889627170413   11.37966818309751    2.36316093383347
C         8.30367294154476   15.84400679154522    1.15350883710799
O         7.54894094800905   16.77130734228695    1.05503733937796
O         9.60796737497178   15.90711280699937    0.90509714180908
H        10.15375910066070    7.49916833531846   -3.41031081564368
H         3.42073677421065    2.89486014677091    4.25490073549593
H         9.86722122858962   16.80375779182613    0.63574141652354
H         2.97910343828292   14.03463754687854    8.99327581833184

