78
CSD_code = RAHCAF | q = 0 | S = 0 | Stoichiometry = C32H42CuN3 | MND = 3
Cu        3.72285494604921    8.55059391132340    3.86372808368018
C         1.10282819725702    8.52914724103901    4.91603024168642
C         0.30149198767079    8.20952306161951    3.80447669895287
N         5.04328764481281    9.89829980009955    4.10616752388229
N         2.20241934661881    9.37060757126888    4.74172885394681
N         3.43103298854093    6.82354084632579    3.08105749219288
C         2.30349733161128   10.58135247364656    5.23770445848405
C        -0.94675977955434    6.66504819242975    5.16559061122329
H        -1.74712834939654    5.94609262470510    5.26518519724583
C         0.87906550323763    7.89448189993218    6.15079851445319
C         2.70568568960963    5.92345038784363    3.75700472437630
H         2.59918283974918    6.09370680279949    4.81730572712180
C        -0.14426124623603    6.96451878380778    6.24971302828537
H        -0.32099286211867    6.46500536388996    7.19114744835890
C         1.75672557621577    8.18172849696653    7.34961626039329
H         2.42773594899907    9.00919905582645    7.10325332363452
C         2.10713801465744    4.83546799565833    3.16497819971046
H         1.52442704270551    4.15239534157042    3.76240291050490
C         3.47189565060646   11.34495191657980    5.20120553888694
H         3.38929534138910   12.32544357540393    5.64959894130295
C         1.10846213273267   11.23656622844098    5.89220560368152
H         0.22075017237692   10.61522697512043    5.79440110989489
H         0.91864657082199   12.20603949861381    5.43363293553087
H         1.30461622932774   11.40307411633321    6.95052617899306
C        -0.72066002245282    7.28798314613927    3.95141841821679
H        -1.35387401023560    7.04808169820001    3.11118253906379
C         0.56311575327817    8.90397963482845    2.48785533879352
H         1.63546072461508    9.14262571887419    2.45568012112935
C         3.59598308132201    6.63910438770970    1.76155894178654
C         7.14933920342924    8.72080364888654    4.21234276700969
C         4.73875518636759   11.02692157580265    4.70802151500989
C         5.80316334167865   12.07720955436748    4.92177994434145
H         6.79262356285053   11.68425374007250    4.69841127016435
H         5.78373817409071   12.42470744862899    5.95337885777028
H         5.61417163949621   12.93545036981590    4.27721988749815
C         6.30963494501883    9.64067503197025    3.56488994729504
C        -0.21750155396575   10.22042358562483    2.42722058764810
H        -1.28485447252608   10.03036271571499    2.52618459341058
H        -0.04061787768688   10.72255590435346    1.47791420200770
H         0.09178566815845   10.88373961449325    3.22997547086940
C         3.02965629944333    5.55736321339093    1.10404747188924
H         3.18874170413914    5.44468310096097    0.04181156077473
C         7.93416738119023    9.86680171066260    1.80711698631075
H         8.23740801948446   10.30802630326789    0.86778938579384
C         6.70267693971139   10.20965957792099    2.34507670741139
C         8.77209178650209    8.97676865645793    2.45314656910133
H         9.73089209375652    8.72523054306817    2.02440335151222
C         6.68738978270769    8.09459431243780    5.49127857972147
H         7.40560491170129    7.36156578982455    5.85000229206907
H         5.72200383031796    7.60684884351630    5.32804413186337
H         6.53967024339076    8.85276580728235    6.25999785335882
C         2.25929389394851    4.63038546480182    1.79420855855714
C         5.80096356744104   11.16610069185908    1.62112826092809
H         4.76208320353138   10.99710737299340    1.89889776656193
H         5.90831549876707   11.04906012415377    0.54428399667147
H         6.05499551943165   12.19617373760424    1.87338432952267
C         4.41079712896555    7.64688037569694    1.02122775585368
H         3.77699598264116    8.47518621305443    0.70512499842637
H         4.86696445171794    7.20785804714773    0.13751831097026
H         5.18464622209446    8.05026227503586    1.67298267854071
C         0.92445856528269    8.58931007879816    8.56744230935649
H         0.24861852300083    9.40313763930061    8.31454716560258
H         1.57740853437096    8.91934508602002    9.37320480592354
H         0.33124283578748    7.75482368219893    8.93330325380533
C         0.23081233876826    8.03980254256124    1.27227078562135
H         0.66319234061511    7.04705018700796    1.37474000924569
H         0.63337378310554    8.49958240732109    0.37137092368674
H        -0.84452510312613    7.94150968557468    1.14219920760125
C         2.62969170341734    6.96798028865764    7.68163674793230
H         3.21862365701098    7.16345827459577    8.57567472704036
H         3.31664697952433    6.75987813531499    6.86338486008437
H         2.01880417405358    6.08477154074914    7.85712381439208
C         1.62392551608922    3.46303103292891    1.11241550508956
H         2.03173749541039    2.53176330837397    1.50419894984965
H         1.79569529524272    3.49531159054654    0.03970494027464
H         0.55085465588184    3.45731735465941    1.29837329625057
C         8.37213693950940    8.40274287430232    3.64801032271710
H         9.02068304405434    7.69932219321958    4.15123282125066

