86
CSD_code = RAHKIV | q = 0 | S = 0 | Stoichiometry = C36H44CoN5 | MND = 4
C         0.54845618872948   -1.07983958475119    4.86651296265087
C        -0.28491973020093   -3.15266154184537    4.62906315041678
H        -0.86822804058381   -3.92728319637313    4.17299668884790
C         0.53495227836335   -3.18774533025193    5.70410734711565
H         0.78984279469189   -3.99354868780414    6.36083162139021
C         2.27475314326827    2.22421578060541    5.62788087623436
C         3.46611308888212    4.01492919419760    6.27723291174573
H         3.81638768945998    5.02676033422416    6.23280508999228
C         3.78933821899182    3.00991736299210    7.12258584253096
H         4.46321322148070    2.98730440417472    7.95382198011724
C         1.93739773277977   -1.37966310283461    6.73473907088813
C         2.47880217249660   -1.97461088853982    7.85798100801342
H         2.24394674864959   -2.99521150310082    8.11423409507797
C         3.33165780243173   -1.21629606499365    8.65708684918318
H         3.77888010343016   -1.65214824811863    9.53574979641463
C         3.58067440807243    0.11591207332331    8.33415613142666
H         4.20690811326729    0.72875207468746    8.96241135126883
C         2.99593236615785    0.63024781257589    7.19299884955871
C        -2.32108646897587   -1.05543202424641    3.12662073821072
C        -1.00926072722894   -1.51047650778799    2.97970598562719
C        -0.41784255023842   -1.67255730838925    1.72389644810272
C        -1.16936238509789   -1.35329382246064    0.60205156782307
H        -0.73734196428189   -1.44877201358218   -0.38106782265030
C        -2.47472912368815   -0.91685251563836    0.72768969583005
H        -3.04980811888708   -0.68293408045284   -0.15642701944127
C        -3.04636460240477   -0.77371834377513    1.97711599127688
H        -4.06614568078254   -0.43186234465091    2.05668966089553
C         0.37808815945682    5.89085541140789    3.57073525229806
H        -0.52012999488802    6.46787859576074    3.72258806248588
C         1.05053006147655    5.98811435017831    2.36780378372152
H         0.67096663124421    6.63593306727773    1.59102860255572
C         2.20351619567256    5.25790231923840    2.15004092761670
H         2.70817494315387    5.33923367688281    1.20085598297839
C         2.71517222742120    4.43032715732694    3.13934326352167
C         2.01518657527910    4.33614533589358    4.34510494926769
C         0.84016098387822    5.05430899608403    4.57726016037518
C         1.93735840875863   -0.91471517137343    1.68397604223044
H         1.72306752538814   -0.23584343415531    0.86220694628613
H         2.97891722000347   -1.22232020219148    1.62307830639520
H         1.78226066682728   -0.37404187903456    2.62136333627202
C         1.01633831871661   -2.13575101629399    1.61539431786377
H         1.23983214761537   -2.77979565183376    2.47303999413803
C         1.29208602522593   -2.94855222500917    0.35012842966030
H         1.28112875471097   -2.31725100486226   -0.53460626547092
H         0.55232613944015   -3.73713201649486    0.22721186162762
H         2.27617446705613   -3.40763856377515    0.41843410263554
C        -3.80840488349317   -2.10513540499524    4.82447898084331
H        -4.60683534218419   -2.20561253501347    4.09186098377949
H        -4.25527965658629   -1.99192630287730    5.80981356025094
H        -3.22031991989771   -3.02043765086903    4.81753795110952
C        -3.74606959082824    0.39945818177425    4.61232851689398
H        -3.15476832056785    1.24206771959793    4.26459573229449
H        -4.01551957976377    0.57199986847470    5.65207602666221
H        -4.66340695543975    0.34891755820051    4.03099444824491
C        -2.93440074976893   -0.89059415782076    4.49712411590884
H        -2.12476723423233   -0.83001520582096    5.23011480703774
C         4.97261372179654    4.27523894172460    1.98941745706511
H         4.62160272649784    4.27293384384704    0.96070867242458
H         5.91430972385689    3.73107395039342    2.02031344002560
H         5.15910934310142    5.30317135437814    2.29402524078107
C         3.96269730521731    3.60581779912789    2.92168715526857
H         4.45668704818002    3.46035284839586    3.88873307521040
C         3.55854789711940    2.23115662854877    2.38215560575768
H         2.88597677466382    1.73067228224033    3.08260080617389
H         4.43844427141756    1.60917051564807    2.23342869790873
H         3.03980388192020    2.33816920975374    1.43261688731939
C        -1.40839967878580    4.92133763059406    5.71734657259233
H        -1.78613418746579    5.90049892902001    5.43298718942058
H        -1.88387874505962    4.63698784236830    6.65358607137064
H        -1.68955641170808    4.19995907106143    4.95493525942314
C         0.52856626276676    6.07457243393550    6.82590594807781
H         1.59773003700015    6.04349161391236    7.02411140242026
H         0.00173789714215    5.99744275530085    7.77454240919653
H         0.29124323937395    7.03650471190795    6.37539894713073
C         0.10968304084763    4.93308429547216    5.89397349343426
H         0.39033829442954    3.98031797485019    6.35248154422469
C        -0.06264457334524    1.63703376850676    3.97862572127892
H        -0.87921965655468    1.94609024612839    4.64563415797479
H        -0.53574849639357    1.05104984808410    3.18578601297057
H         0.28710167381490    2.55533084147528    3.49826632053771
Co        1.27445213362132    0.68866436148223    5.05073418258528
N        -0.26584862250868   -1.87274177640616    4.13291887401298
N         1.04014015169947   -1.92089711332330    5.83613137541788
N         2.22092075368541   -0.11096450533482    6.37496758068307
N         3.06045662610342    1.92365521414854    6.71501739707557
N         2.54951766509569    3.52541273988941    5.38007845418714

