95
CSD_code = RAHKUH | q = 0 | S = 0 | Stoichiometry = C30H58ClNP2RuSi2 | MND = 5
Ru       -2.71137079023803   13.21255338684954   33.58308910775188
Cl       -1.86945873520358   13.98998583355852   31.54203465792770
P        -0.60201029959128   12.86806361479917   34.49010534631909
P        -4.87048504107024   13.11840298058944   32.73080206570189
Si       -2.46647291673117   12.58208521313179   37.03341003418277
Si       -5.36548389791502   12.57399537971469   35.82085289071973
N        -3.64106386392245   12.95179411102742   35.76268207610744
C        -2.30235435526886   13.98984423847378   38.31338493222048
H        -3.20767235044878   14.05625353969728   38.90944845830152
H        -2.12809665468095   14.96198752576336   37.86692166363783
H        -1.48425416643690   13.78249451188003   38.99674929970628
C        -2.96349124092299   11.03934164936237   38.03514730702148
H        -3.09575545848449   10.14937593428441   37.43228402167558
H        -3.87577924566166   11.20385071977402   38.59411609803333
H        -2.17823800413944   10.83138485130749   38.75368691254690
C        -0.82273037964382   12.11852497257569   36.16918270545462
H        -0.84808370488346   11.03820739539290   36.02319065409738
H         0.03998338943474   12.33298687237559   36.79742429059221
C         0.66078066975392   14.24329727242062   34.81744531909222
C         0.82122578388841   15.07071679315123   33.54065659644503
H         1.26434235240687   16.03743827545419   33.77576473030973
H        -0.14636142884871   15.24517139573455   33.07582532482629
H         1.46036350119405   14.57629116869956   32.81552325283432
C         0.00925994863671   15.12625771998577   35.88499145906166
H         0.53742489936034   16.07583611351332   35.95946947565871
H         0.03523334429525   14.64839372285833   36.86099219434480
H        -1.02499997076201   15.33520783360244   35.61626732739744
C         2.03245058500807   13.79064856217967   35.31277246436096
H         2.59901950879023   14.66724507947226   35.62699764728273
H         2.59901576595555   13.29895663801283   34.52636245603872
H         1.95801157424888   13.12084390434909   36.16767889988593
C         0.25937437827336   11.43248475974257   33.57697091233585
C        -0.91717899617450   10.53836005261505   33.16780288108638
H        -0.57274426333792    9.68929068962716   32.57748207268477
H        -1.61383954484362   11.11711554639158   32.54958908989576
H        -1.44688387849229   10.14983130600463   34.03982056517407
C         0.92030472276042   11.95493542095447   32.30134207674741
H         1.12001902478071   11.12689479432047   31.62046751218478
H         1.86813596136724   12.44116938244720   32.51732726915797
H         0.26549950547311   12.66276620323240   31.79268091798135
C         1.26705451266380   10.59916810777487   34.36937048771704
H         1.66664308599317    9.82374849999196   33.71499283795644
H         0.81291773961771   10.10326955062930   35.22405497897806
H         2.10046575600883   11.19633910237995   34.72313981381429
C        -6.27003398900624   13.59678525648695   37.16045630104647
H        -5.76607537092101   13.51717627540118   38.11846939407819
H        -7.27821753138034   13.21672016075737   37.29182918036913
H        -6.34879789578517   14.65007318674807   36.91232672141297
C        -5.70841913428998   10.75013757605685   36.26909827854492
H        -4.94242291366546   10.05572232762889   35.94793815871821
H        -6.65132702284783   10.43470337217929   35.83415529819544
H        -5.81173634383497   10.65432268222828   37.34304127277449
C        -6.08625280202732   13.07826177671129   34.12388078121796
H        -6.95464286151257   12.48065188336586   33.84997325899309
H        -6.42232067811852   14.10970300290611   34.23146666861128
C        -5.08313851550705   11.40956608315316   31.92315245884304
C        -6.46753301998324   11.05062727149821   31.39091536664562
H        -6.47114775664504   10.00184001332469   31.09187922533969
H        -6.72518435829946   11.64337246322172   30.51717131884358
H        -7.24044877087336   11.18201827677105   32.14610693159943
C        -4.71288210611037   10.43628502030180   33.04770340125290
H        -4.43162468916295    9.46358888233457   32.64462242373003
H        -5.55341368842116   10.29543320901550   33.71949555483560
H        -3.86611652172286   10.82847829013668   33.62618403309934
C        -4.05402983863705   11.27203795630727   30.79614636969885
H        -3.84468149195785   10.22020354059323   30.59942122683097
H        -3.11591638639797   11.76575823471456   31.05972181798004
H        -4.40818989628589   11.71685173929374   29.87142238921197
C        -5.67143008554594   14.43300779702185   31.62227941629595
C        -7.20160330068457   14.44226340126117   31.61691047086147
H        -7.54031614203174   15.16365657448498   30.87347060035425
H        -7.60903280285735   14.74816863133541   32.57709265836958
H        -7.61864998061586   13.47446554854500   31.35601614516841
C        -5.15614137475741   15.75376848767682   32.19828474927147
H        -5.61133970789847   16.59995778707420   31.68593435803418
H        -4.07793708633935   15.81233881176242   32.06852300524635
H        -5.37058923612847   15.84292136888044   33.26303021679657
C        -5.15671957869494   14.31073978777467   30.18824105950629
H        -5.37097166320506   15.23105113985896   29.64543649262319
H        -5.63821030724268   13.49286967309116   29.65732297937634
H        -4.07857298507931   14.16260056056600   30.18347614299489
C        -3.36918182839834   14.21133556871272   35.13657004811691
C        -3.67220003899641   15.39624518677496   35.67905766545076
H        -4.17542350467961   15.42005878837058   36.64132396592364
C        -3.34957393605398   16.68977910147360   35.11549429771284
C        -2.57298962190858   16.80590297223779   33.96000245477018
H        -2.23810290225821   15.89407492808763   33.48137813607444
C        -2.24837330255535   18.04261477157241   33.44572527453060
H        -1.64670212286607   18.10987075466405   32.55086106682150
C        -2.69140496053017   19.19776184833211   34.07300222660569
H        -2.43782739721905   20.16807338008136   33.67108370554101
C        -3.46099478443532   19.09971909716626   35.22048633004623
H        -3.80893123621739   19.99633199075443   35.71508946479124
C        -3.78500192120181   17.86109791840047   35.73912182516014
H        -4.38374143041665   17.79429501685198   36.63840632641035

