85
CSD_code = RAHKOB | q = 0 | S = 0 | Stoichiometry = C35H41Br3CoN5 | MND = 6
C         4.92052278721182    2.24759458119807    6.96294276520135
C         3.57666565726742    0.75335254975192    6.01107464248174
H         3.13739831683736    0.21869522625286    5.19421322394787
C         3.36891268917446    0.65452515441042    7.34167066281988
H         2.71758652023915    0.02100638794871    7.90598431676700
C         7.06470056107967    4.65001072775524    9.03976767768332
C         7.34284109160897    5.16954534596871   11.21711934340664
H         7.18657812622115    5.12201053831318   12.27414299768303
C         8.16619578236330    5.94162423432026   10.47587862819802
H         8.86600547948054    6.69723957071509   10.76811570961955
C         4.41651882297143    1.92911937871703    9.24027448646205
C         5.70835196887552    3.39721352218484   10.50013755759260
C         5.15486867826946    2.93803934131946   11.68555636916144
H         5.45741904430553    3.34701766921360   12.63448686368625
C         3.81405072339624    1.41251845485170   10.37718237359367
H         3.07341514597658    0.63408209063421   10.30802140206624
C         4.19906282420778    1.93423916644350   11.60489278893983
H         3.74938196714262    1.55454566413147   12.50843183868116
C         4.95420970684586    2.08272492087107    4.48555990737354
C         4.25145991564504    3.07006027313140    3.79367344871566
C         4.63590643782697    3.34262759044285    2.48819549563461
H         4.11140745300031    4.10017198099128    1.92846900231426
C         5.68318890693748    2.66184452531911    1.90023092155377
H         5.96836762268485    2.88803748830492    0.88367010411752
C         6.37447693210950    1.70118856267654    2.61089201936429
H         7.19947298285217    1.18537291163580    2.14649681306788
C         6.02645318098798    1.39310163571140    3.91879727392294
C         8.72654106405165    6.24596127863786    8.11294150441086
C         9.96138377054664    5.70814138694600    7.74770279365690
C        10.70526957599458    6.38711409891394    6.79272638821367
H        11.66374910969022    5.99634320688105    6.49105404131753
C        10.23233963417935    7.55138034289396    6.22100468023437
H        10.82532556377964    8.06568516373683    5.47953994795059
C         8.99948298327519    8.05426994447853    6.58560386223420
H         8.63364489888127    8.95653842183858    6.12257594622118
C         8.21977443812062    7.41132545319474    7.53709968880417
C         6.79904288266406    0.34437916105411    4.68112194103137
H         6.49321259508499    0.35509876464130    5.73074184454436
C         8.29846802021739    0.64324140484595    4.64326618917143
H         8.81827563496150    0.01355189063371    5.36092373842379
H         8.47594975786934    1.68229590437820    4.90630670400252
H         8.71459657665309    0.46167310838934    3.65615334910912
C         6.50166935430761   -1.04771085369475    4.11837895463918
H         7.05900009335874   -1.79868000760587    4.67332976945597
H         6.78975363667865   -1.10686480712224    3.07150101616908
H         5.44014717771757   -1.27957416231957    4.19408819235277
C         3.10734010876479    3.82908413981299    4.42073793905090
H         3.06737021898143    3.61262272188674    5.49160938295544
C         3.31003590977586    5.33748477112747    4.27234728746493
H         2.60456212914259    5.86795288858865    4.90670199156527
H         3.16320198414531    5.65943646779044    3.24510235881574
H         4.31634624499183    5.60818466933789    4.57901810613983
C         1.77810651387890    3.38992594201109    3.80177473425720
H         0.95745319259815    3.93917856105000    4.25720936048309
H         1.60924903746115    2.32530506012722    3.95745145772849
H         1.77239476472020    3.58326008160029    2.73169738104909
C         7.04208899626322    9.26719580335203    8.71662355096484
H         6.06746384577042    9.66621548782074    8.98768469459073
H         7.57014642949710   10.01394392306026    8.12843259271888
H         7.60831440314615    9.08855373676271    9.62980014199826
C         6.87160244720710    7.97336800602520    7.91679657459179
H         6.34036909947436    7.25583805086803    8.54778547654289
C         6.01288267714458    8.20572697196660    6.67268302050244
H         4.98471972241883    8.40193269050994    6.96568629322382
H         6.02729610404779    7.32135588870768    6.04198283647346
H         6.37553659178500    9.04914075941291    6.09175257967470
C        11.66101984134867    4.74285102872676    9.29674661187028
H        12.03735306370430    3.82211369185579    9.73646199346610
H        11.34794777938280    5.40692550329824   10.10138035232436
H        12.47146168926038    5.22344021612359    8.75389853861551
C        10.49305585705897    4.43345433045273    8.35687096180179
H         9.70655486234978    3.95260094809321    8.94472960083973
C        10.91129107547494    3.44405577632719    7.26842444162459
H        11.09409724206659    2.46717961674253    7.70896971292733
H        11.81461614455616    3.77016891380042    6.76040493476355
H        10.11787056351861    3.34481010174590    6.53300795552977
Br        7.78390657848486    1.76820316525417    8.07654860595502
Br        4.27676867436455    5.19187472540921    7.77164567219678
Br        7.08607207396436    4.37047070839389    5.79906098361307
Co        6.10388075069195    3.54214702923786    7.77864679037849
N         4.52326066322863    1.72801109658511    5.80036864746158
N         4.20040671901775    1.57927574279948    7.92277687924300
N         5.33387899332381    2.89200938166468    9.32522674457411
N         6.66682536272693    4.37478225116474   10.32518051935872
N         7.98310555109862    5.61053995625674    9.15403310687224

