106
CSD_code = RAHLOC | q = 0 | S = 0 | Stoichiometry = C38H62NP2ReSi2 | MND = 5
Re        2.82682807390752    5.63261196466405    4.63997211330724
P         4.71621516323237    6.56766991898751    3.39547508158274
P         1.21400248886078    4.25008997247285    5.85862898627442
Si        5.01821011182332    3.50497011872537    3.15267215530782
Si        3.78188395930186    2.54420146674330    5.69378661263683
N         3.96537536559252    3.74559367450263    4.48442380365369
C         4.26794686662403    2.42173515019602    1.76385188161451
H         3.32558177037556    2.81056714043914    1.38828460489642
H         4.08792448370260    1.41478559061338    2.12512053407401
H         4.95219039138806    2.34767096598551    0.92354303843808
C         6.71249938416977    2.73017110144514    3.56191773749186
H         6.56322079585433    1.71743176021955    3.92011483815046
H         7.26872605926689    3.26617328683814    4.32444991363776
H         7.33511771874730    2.67263992898352    2.67458144726603
C         5.31422114279574    5.22171809436116    2.33166750973768
H         6.34895583797523    5.37868346117377    2.03677361019985
H         4.70275978741797    5.24413726279906    1.43249911003087
C         6.17380213361820    6.97308861562616    4.54154765710294
C         6.04831633297308    6.01294248882516    5.72810904245162
H         6.88143095886024    6.15764158181363    6.41663895515484
H         6.05382225874942    4.97608980531949    5.39955290306913
H         5.11958024282396    6.20473724323742    6.27297101369781
C         6.04913135832863    8.39668099142989    5.08556631763516
H         6.73553251042289    8.52664475678808    5.92242951993449
H         5.03516000917358    8.57217011779756    5.44022509870076
H         6.30495349120666    9.13853508329836    4.33429779686510
C         7.54377868782476    6.77768429661116    3.89257217836501
H         8.31481435024225    7.13337698961603    4.57638424242714
H         7.63940043274422    7.33529590074013    2.96461187448373
H         7.73977904780642    5.72644056866197    3.69382609558291
C         4.38414478131264    7.99051017995485    2.18072857992953
C         5.63809512187813    8.51414514330216    1.48585920466915
H         5.34863020953204    9.21900642377944    0.70688897282840
H         6.19203639008520    7.70423475329018    1.01379561515578
H         6.29535498094801    9.03605116649477    2.17594067273782
C         3.65250835603107    9.11524816812025    2.91436586113136
H         3.22262338471516    9.80596514030483    2.19090951166003
H         4.31448366195132    9.68067670358963    3.55998414207290
H         2.84740091784076    8.69583793978920    3.51815734159195
C         3.42810630837145    7.42405497234096    1.12310245375063
H         2.91596062656867    8.23830425590902    0.61423411389812
H         2.66910963748734    6.80106564912605    1.59857225290201
H         3.95572113087073    6.84632126812854    0.36740530981840
C         3.62751240279032    0.74929590394932    5.06645035737308
H         4.55991848661746    0.45626495844266    4.59624031506967
H         2.83629751105268    0.60373672323762    4.33780750503139
H         3.45046965003008    0.06574036122497    5.89096728217366
C         5.19543063460943    2.52504099986150    6.98480892186704
H         6.13596691781115    2.26311183354919    6.51194518747064
H         5.00136446911227    1.78323214933272    7.75414033955515
H         5.33021129689246    3.48362889713551    7.47798369483928
C         2.20140317518738    2.98052137104972    6.70387823266389
H         1.60015275459937    2.10854369768346    6.94975476337734
H         2.54304273554999    3.42502581839930    7.63595948061192
C         0.08270590454836    3.28720871951991    4.67810632230600
C         0.89078342757459    3.09774095565632    3.39097255766900
H         0.31915616772152    2.50866085006446    2.67318308057035
H         1.82833443278531    2.58188662151972    3.58545422402955
H         1.11077886847480    4.06791341673763    2.93673889031633
C        -0.33527088928186    1.91460341538141    5.20469390176908
H        -1.06486245423185    1.47908098003574    4.52160771119408
H        -0.79559105454186    1.97717819500421    6.18727803074123
H         0.51359616134848    1.23651819071392    5.25569519289875
C        -1.15486171695139    4.11424696453926    4.32834732263253
H        -1.65735038774303    3.66959018111083    3.46921215812471
H        -0.86239242725063    5.13034639232853    4.07005572210539
H        -1.86749591291275    4.13810116946898    5.14797981196053
C         0.21536908345520    5.05385266838049    7.26145253625930
C        -0.77402774914943    4.10783656866187    7.93645521316348
H        -1.19611484574252    4.59709190115240    8.81392027672745
H        -0.28098412682098    3.19540442662671    8.26811727163788
H        -1.59673676627294    3.84472145159097    7.27724563580620
C        -0.49440029002062    6.29690899667286    6.72298012484121
H        -0.83122029717347    6.91576140186292    7.55291034224982
H        -1.36194938274892    6.04459979599098    6.12424384294822
H         0.19685220146581    6.87868617561675    6.11269574837452
C         1.24763822277370    5.51667343559645    8.29764129610795
H         0.81096030539956    6.27981384327461    8.93888939160034
H         2.11000165830494    5.95891458040329    7.79651118631825
H         1.57458188056956    4.69974219731493    8.93717731541738
C         2.71838580019890    7.29544838532000    5.83673903024802
C         2.75144591086556    8.24177172501020    6.61001758138473
C         2.75986888351010    9.32740804182744    7.51128892292796
C         3.86048771984597    9.55936114010512    8.34133752216962
H         4.71284394208848    8.89791528795877    8.28555197484777
C         3.85315002573311   10.62020180634438    9.22486121388772
H         4.70714587950097   10.79224300699801    9.86481405678793
C         2.75663303535177   11.46524896260189    9.29473940204108
H         2.75525024478446   12.29413204724610    9.98740154412998
C         1.66192260386808   11.24266597070318    8.47288960903743
H         0.80667881794684   11.90128705705849    8.52676838264448
C         1.65723006190875   10.18394446252044    7.58759011671108
H         0.80993874749965   10.00126071308311    6.94372819757536
C         1.32737310872244    6.61389429015017    3.63961132201516
C         0.42782794801295    7.09514445600087    2.96602274801582
C        -0.58725350704900    7.67649202037346    2.17642096058491
C        -0.78290715214903    9.06098249980507    2.19358179168476
H        -0.15100215278925    9.66889882739500    2.82365003239162
C        -1.77057797334016    9.63135228226188    1.41643727241323
H        -1.91689715173599   10.70206083342811    1.43442514282217
C        -2.57495677083672    8.83904364020584    0.61114906696771
H        -3.34569680293198    9.28994434435635    0.00326842243679
C        -2.38646610583418    7.46599220931682    0.58827271347353
H        -3.01241305500406    6.84714701009883   -0.03917321951686
C        -1.40315519456612    6.88434429004682    1.36335825180426
H        -1.25236363479368    5.81478741760895    1.34620704672966

