110
CSD_code = RAHLUI | q = 0 | S = 0 | Stoichiometry = C32H70NP2ReSi4 | MND = 5
Re        0.00039289460853   18.38812134437099    1.47594027985090
P         2.26437191063990   19.28071332863041    1.22683594973537
Si        1.48551137016051   18.21807035866676   -1.57343432811469
Si       -0.95669397081502   21.88961687240652    5.08199943834981
N        -0.00014689975120   18.38811079303887   -0.73807033269533
C         1.73196533033117   19.37496402645378   -3.07058017751373
H         1.01116915416285   19.11789814698780   -3.83918635251255
H         2.72176882395102   19.25144301108433   -3.49874073930905
H         1.59817324926545   20.42672911689872   -2.83862543386123
C         1.80619082597256   16.44606543789053   -2.22390426746405
H         1.76916097734308   15.69677360536937   -1.43819795968465
H         2.78169801303874   16.37998405589173   -2.69691633245020
H         1.06538332341309   16.17766136008356   -2.96954750376321
C         2.90115381255456   18.53848784713791   -0.30638963445417
H         3.29346221481142   17.56135218940014   -0.03373741753836
H         3.71892977880426   19.12191761036842   -0.72249754805428
C         2.24618794932600   21.15027162430274    0.89675817848780
C         0.89521973596000   21.44118296882808    0.23654208698413
H         0.83406005173709   22.49347626197331   -0.04197904619922
H         0.08181720072593   21.22747295920168    0.93481984778751
H         0.75703174974805   20.84270385785603   -0.66109422009880
C         2.29118095220401   21.93319254115578    2.20944430043861
H         2.03473068325415   22.97486514791314    2.01591621559375
H         3.28197757487811   21.91686538508840    2.65477802406497
H         1.56542564737499   21.52540474062363    2.91048498364130
C         3.36349400117509   21.62078987310085   -0.03440980770303
H         3.34987105095932   22.70971489957679   -0.08489199273758
H         3.22011546944150   21.24249598378571   -1.04389782891294
H         4.34521058876233   21.31666262834851    0.31925377835333
C         3.57381099625112   18.82872075876878    2.52784456204333
C         3.04161570070283   19.18891381632300    3.91538886547014
H         3.65792577672544   18.71595440197091    4.67780209831134
H         2.01875585427255   18.82812348646480    4.02184796183431
H         3.05373534314665   20.25754891255608    4.09316877864725
C         4.93802458402084   19.46690589420205    2.27933776136429
H         5.66076711780605   19.05520107050190    2.98335091369568
H         4.91411964542033   20.54348904239408    2.42290376695157
H         5.29410150019796   19.25265611023375    1.27290411780573
C         3.72118358178655   17.30329771324750    2.47165927174703
H         4.19685526390195   16.94891180986829    3.38381754156265
H         4.34036899757281   16.98526704560690    1.63580526889005
H         2.73930288917517   16.83352384695083    2.40546907975483
C        -0.38215710185806   19.67673408569264    3.03077065715604
C        -0.60899586771874   20.55627407410259    3.84929818891508
C         0.57658815214626   22.12617591174531    6.19530301020850
H         0.87232628167386   21.18406540926445    6.64547884941140
H         0.38668633758733   22.83298182183263    6.99802220079625
H         1.42341654069322   22.49551528009184    5.62509096562978
C        -2.47256857350691   21.40931184712904    6.13832784478696
H        -3.37103522296960   21.35674223794689    5.53127998131745
H        -2.65372803009573   22.12756694606208    6.93304648843098
H        -2.32894484075826   20.43605330588857    6.59659528251063
C        -1.32216469448222   23.51294671209725    4.13922055965554
H        -2.17162248097059   23.39351921767067    3.47360311980287
H        -0.47245286358130   23.81331289282158    3.53403674821166
H        -1.54823159747225   24.33056331257136    4.81785437441151
P        -2.26438760410190   17.49612767698637    1.22667769607352
C        -2.90154578658297   18.23800043922883   -0.30651662863736
Si       -1.48578548828366   18.55812534759892   -1.57347657808091
C        -1.73229071759732   17.40112996773253   -3.07051468667474
H        -1.01159763368527   17.65822922094547   -3.83922045585660
H        -2.72217141853024   17.52457248684548   -3.49853407863813
H        -1.59837823691940   16.34939390420488   -2.83848871448471
C        -1.80643276895891   20.33011818273133   -2.22402178783796
H        -1.76950543210284   21.07946658533379   -1.43836357056849
H        -2.78188283377954   20.39613926226188   -2.69715080194798
H        -1.06554692446337   20.59849555763486   -2.96959655225881
H        -3.29374715797217   19.21517129159473   -0.03387329198845
H        -3.71935309614008   17.65448019406256   -0.72241609775574
C        -2.24637427102953   15.62640296211832    0.89706305568467
C        -0.89545048087131   15.33534097560384    0.23684545070742
H        -0.83441609703318   14.28302323971269   -0.04162375719189
H        -0.08201668871062   15.54901857236747    0.93508139238022
H        -0.75723498780623   15.93373196352235   -0.66083684394787
C        -2.29130779269603   14.84338023718547    2.20971088275189
H        -2.03486783410895   13.80168396396119    2.01623756620497
H        -3.28210567703105   14.85972642111362    2.65503722445869
H        -1.56555878337050   15.25119570475384    2.91073873136099
C        -3.36365920406729   15.15567287359210   -0.03404395664066
H        -3.35008944996154   14.06673698122829   -0.08439491894953
H        -3.22025237110413   15.53383089176143   -1.04357260373432
H        -4.34535489918344   15.45989354551061    0.31958028767797
C        -3.57384034560525   17.94782261281695    2.52784630843460
C        -3.04172557834204   17.58779451319905    3.91547110953323
H        -3.65793468205406   18.06088892296379    4.67789694617647
H        -2.01881955957311   17.94845311749832    4.02186952918442
H        -3.05396852525707   16.51917897816734    4.09334752081041
C        -4.93816796880286   17.30976950842635    2.27958564023590
H        -5.66088600056456   17.72155288618957    2.98359337137258
H        -4.91430332861535   16.23320193665850    2.42322983901438
H        -5.29427092257409   17.52394706325406    1.27315414237175
C        -3.72123444599632   19.47323240122018    2.47164894518354
H        -4.19682478778899   19.82772203420435    3.38381506481507
H        -4.34043293673255   19.79123498943577    1.63580291042734
H        -2.73935694221053   19.94297252213587    2.40536550199342
C         0.38331112269812   17.09986909542358    3.03072372241086
C         0.60891490069439   16.21990074957519    3.84910980026330
Si        0.95697590238536   14.88694493396682    5.08207008098126
C        -0.57702757726095   14.64842289566454    6.19395064406736
H        -0.87414008920142   15.59007939482904    6.64420622930455
H        -0.38690118857544   13.94158316739385    6.99657694783923
H        -1.42300515753290   14.27826896741004    5.62298083183952
C         2.47156389754069   15.36842508408867    6.13969266503356
H         3.37043254164717   15.42224248449215    5.53333247241705
H         2.65286276690069   14.64991093096577    6.93414958164321
H         2.32658315085447   16.34128901639031    6.59838366289731
C         1.32489113220194   13.26457357750061    4.13859039932134
H         2.17496307196525   13.38521799921276    3.47396028083439
H         0.47613363260766   12.96372139069679    3.53229762330486
H         1.55102479955637   12.44680543617938    4.81702084662403

