78
CSD_code = RAHLIW | q = 1 | S = 0 | Stoichiometry = C36H38ClP2Ru(1+) | MND = 9
Ru        5.66707922567217    0.60370729637325    4.17920363861710
Cl        6.37244778723028   -1.40130878106374    3.13686212940841
P         4.34082913429186   -0.69353155006105    5.53885155703884
P         7.33361564411567   -0.19270389084257    5.53062861530180
C         4.70275765484203    2.72847147758739    4.39408019933130
C         4.02300891972026    1.99034540388890    3.38502746890554
H         2.93957822840957    1.92824674760617    3.42244825194892
C         4.71567512803293    1.46308768360294    2.28754514752893
H         4.16640063333693    0.98161404698683    1.48465356497140
C         6.11963114675275    1.64958046215309    2.14837021096090
C         6.79916781393761    2.33220111376216    3.16677390712260
H         7.85727892553681    2.53881690318818    3.06594999362811
C         6.10064185779407    2.84941659023874    4.28797978914991
H         6.63922456887695    3.45052733682676    5.01434926127967
C         3.92993532573852    3.47339980110199    5.44010526888274
H         4.56452660048509    3.76093940585972    6.27542050175596
H         3.09246192335987    2.88697143492961    5.81333032031700
H         3.52615440754984    4.38466572937117    4.99517202720895
C         6.80174212030147    1.19886515192639    0.88084531000798
H         6.28397124136652    0.30364210520620    0.51715995850412
C         6.63996514049452    2.31275045995383   -0.16226902688816
H         5.58976449602481    2.53392106828872   -0.34189475407604
H         7.09159394314007    2.00307102423910   -1.10047202930494
H         7.13278651629824    3.22326034734895    0.17370079694539
C         8.27594371321888    0.84492095883744    1.07066864942467
H         8.87964968754722    1.72871213738898    1.26540517508120
H         8.65270120521596    0.37787390463932    0.16497224842538
H         8.40072816067576    0.14020265326114    1.89133141067850
C         3.35246910294332   -2.00195135975381    4.75652811596032
C         3.22248940895014   -2.06561627278827    3.37476811738349
H         3.75908688333764   -1.35954376223474    2.75561462498886
C         2.42715756710338   -3.04036243927685    2.79837777287336
H         2.33684630478037   -3.09486330148138    1.72418694396730
C         1.75005206042741   -3.94462578213734    3.59890561798852
H         1.13333052087405   -4.70743272528703    3.14923289688430
C         1.85583689475303   -3.86676496653624    4.97954841635840
H         1.31583752486879   -4.56277281027868    5.60330592919315
C         2.64843049503714   -2.89622831393678    5.56135172605526
H         2.70995560538713   -2.82077622547536    6.63877774997170
C         3.04859212634615    0.16851953616357    6.48602089097230
C         1.84467913888571    0.40222920090256    5.81894353675342
H         1.71365369974870    0.01975415305249    4.81491537535359
C         0.82054295650509    1.09293563786467    6.43836331298402
H        -0.10908804837549    1.26036822284149    5.91591371160154
C         0.98718705139913    1.56460091413307    7.73153002761054
H         0.18756495015155    2.10032082398428    8.21883118042067
C         2.18162200343490    1.34342203550044    8.39665219437824
H         2.31274846919390    1.70644904852025    9.40469195191592
C         3.21233582632151    0.65518958235582    7.77914230021639
H         4.13422383024488    0.49880098155972    8.31848813131647
C         5.37453310346135   -1.58758495292848    6.79678114641951
H         5.42192917759280   -0.97000184314231    7.69803642796494
H         4.90287694623046   -2.54161592123682    7.04676959018241
C         6.78606152224812   -1.79900935943161    6.25259058971998
H         6.77805185514056   -2.55427166157251    5.46209448716141
H         7.48128948845373   -2.09841584127697    7.04397221671432
C         7.63622399135419    0.76984025356965    7.04152903428413
C         6.63922392170969    1.62153335359648    7.50252738678294
H         5.72769486946931    1.72007483663690    6.92202174234060
C         6.81028301932425    2.32021637522802    8.68407605030079
H         6.03322406592793    2.98009227795044    9.04112904370313
C         7.98250837692411    2.17079792310377    9.40788386657057
H         8.12167808656264    2.71882603720430   10.32689479278462
C         8.97692265993877    1.31729302580341    8.95458939687004
H         9.88662816526230    1.19950749182389    9.52312300948222
C         8.80793897465695    0.61325811192164    7.77614458085602
H         9.58090889995533   -0.05375635362935    7.42062164639055
C         8.97506796349183   -0.41555617748942    4.81526870288469
C         9.44189255925752   -1.64216982509633    4.35506599832624
H         8.83563972549582   -2.52895376156437    4.45686037150467
C        10.68572898156466   -1.71595204937745    3.75246896955962
H        11.05063441296473   -2.66761798729936    3.39784410510546
C        11.45838577340889   -0.57645828057999    3.59744297167065
H        12.42464144570522   -0.64113638841999    3.12156356243696
C        10.99295179743515    0.64843317417635    4.05158500547011
H        11.59653701472866    1.53558069094035    3.93206557171572
C         9.75419196700454    0.73082247144882    4.65701686927289
H         9.38203571240845    1.67910517935892    5.02604274622457

