43
CSD_code = RAHPIC | q = 0 | S = 0 | Stoichiometry = C20H14O8Zn | MND = 6
Zn        5.58632073564379    8.43256469454499   14.44895336549538
O         5.20239743482517    8.00558959539438   16.49710663896752
O         5.32601062011679   10.22326662531433   15.06528021527372
O         5.12317690801069   12.73972569176115   19.01909468098327
O         7.62079384920882    8.28689383379277   14.63410622036001
O         5.96537855333944    8.56048448637127   12.58083815653044
O         9.65759057586715    8.85452327499913    9.70361396268047
O         5.32704647974189    6.25264989482714   14.32732788830743
O         3.44883478029143    8.46465427777533   13.74304122078551
H         4.41451208985585    6.08670220425240   14.07089973122325
H         5.42089772930131    5.95577654630954   15.23804297390975
H         3.69537037135407    8.47034012402090   12.80982488920446
H         3.21400906794857    9.37722326921640   13.94412300690688
C         5.20346274040604    9.07638123785343   17.11593025672985
C         5.26778069039576   10.34694160983209   16.34237394391980
C         5.23285271701134   11.54358804302382   17.00785051368673
H         5.27163970518218   12.46115300363688   16.43936026346595
C         5.15176279334625   11.66372349947445   18.43540831994384
C         5.10072498658597   10.38611510882586   19.21388028653968
C         5.02385195490056   10.43317890879558   20.59755567586281
H         5.00402610225540   11.40222470482242   21.07399978505640
C         4.97379132630699    9.26405370520460   21.34140552079263
H         4.91360660092197    9.31392491032401   22.41839892670916
C         5.00144972053083    8.03230700999390   20.70534807743113
H         4.96288745983944    7.12213665824595   21.28501647383722
C         5.07804841424312    7.97011720632567   19.32606898125912
H         5.10144083359483    7.01995444291975   18.81370595880789
C         5.12720952681571    9.14182348391288   18.56919975826344
C         8.12373122559888    8.44799594939337   13.51576063199877
C         7.22614492369044    8.58641100152222   12.33533206723252
C         7.77236842232355    8.71919974113406   11.08698732981305
H         7.11708568373152    8.80825073182651   10.23297187420869
C         9.18365891249386    8.75003865445316   10.82784835684558
C        10.08514914734107    8.64900755428597   12.01785442418480
C        11.45940340912763    8.70004166824863   11.84026387393682
H        11.83999712474595    8.81034041938211   10.83552525016258
C        12.31450774251129    8.61295820691424   12.92840637197864
H        13.38295157115566    8.65605496562635   12.77727541734751
C        11.80101853970568    8.47204651384810   14.20865910499174
H        12.46765665301620    8.40576215953702   15.05546790719048
C        10.43259842473125    8.41699626048216   14.40107281800312
H        10.01196669278838    8.30880151274442   15.38965928788732
C         9.56488675921377    8.50497660883150   13.31145959126678

