67
CSD_code = RAHREX | q = 0 | S = 0 | Stoichiometry = C30H30Br2NiO2P2 | MND = 4
Br        9.29141431717091   15.36418252848497    9.40853619392228
Br       11.80200278267902   14.21831780569260    7.47746641327937
Ni        9.67299049259850   14.87822934786777    7.25609116223100
P         9.87594276937228   14.15881494099109    5.25621709080165
P         7.82865362349488   15.89352832350408    6.92074306476223
O         8.58036883856649   13.88136585794919    4.29359632639669
O         7.34586168261829   16.30764158089323    5.41128697786967
C         7.81611943351378   14.82385462120194    3.56465869733188
C         6.74445332978505   15.45249730650156    4.45542426853998
C         5.78438281174436   16.31474674928048    3.63831955851388
C         5.16232842419319   15.52181909094205    2.49566937547903
C         6.25486263362251   14.95953444429390    1.59337896499742
C         7.18729768632489   14.06332399647986    2.39881811848230
C        10.81764566820757   15.39506409443966    4.30957546212770
C        11.13227667658041   16.60535332271499    4.91263551201171
C        11.78446788579510   17.58943542061870    4.19262374654891
C        12.11411962928211   17.36436900964017    2.86591362969206
C        11.79249878647624   16.15974237871001    2.25838850788069
C        11.14129895751359   15.17333047344099    2.97561490769965
C        10.65722418962125   12.55319092103909    4.91169556554751
C         9.86644940215787   11.41337285845444    4.98309951053582
C        10.42527907406938   10.16995333178873    4.75086810299199
C        11.77386733923013   10.06280604863042    4.45466548868016
C        12.56389085779004   11.19921034931084    4.39460619420449
C        12.01216172509812   12.44550340257448    4.62830949228143
C         6.42395457879098   14.90324015342453    7.51828247390153
C         6.64957950916282   13.59045063027950    7.90963366321485
C         5.59016388602906   12.79466361273775    8.30529815592279
C         4.30454861959200   13.31088146954893    8.29927930887370
C         4.07574545559118   14.61792916041718    7.89568458134528
C         5.13242615070044   15.41709330931518    7.50080340522955
C         7.61129496788929   17.56323992036651    7.60578891935417
C         7.01605914422909   17.77274940723042    8.84281611980741
C         6.89893133954765   19.05971703673215    9.33531433551948
C         7.38245691515399   20.13379730589230    8.60614924991890
C         7.98657286325696   19.92286930162423    7.37783062751034
C         8.10528036764639   18.63897803748655    6.87797500846692
H         8.46862022775750   15.62668050904958    3.19144025975202
H         6.19575652570505   14.64550260330549    4.96272913485751
H         5.01379374500253   16.70490412366631    4.30501063908732
H         6.34663027524436   17.16375187418385    3.24343937243490
H         4.49794124996423   16.17056385308877    1.92345818722718
H         4.56626853155211   14.70204772427078    2.90223267204249
H         6.82565987437104   15.78108174113238    1.15539092270617
H         5.81210746523374   14.38441489040734    0.77922396580496
H         6.63220157534696   13.21621611383277    2.80749338484070
H         7.98603345543589   13.66697055836183    1.77003785440298
H        10.87794339695735   16.77210824586494    5.95992336215620
H        12.03688054211563   18.52684178185933    4.66516083400552
H        12.62531374676326   18.13007010978068    2.30155039189002
H        12.05233876354042   15.98952662619298    1.22377375387822
H        10.88644388603407   14.22792070471664    2.51501987032245
H         8.81533023683936   11.50713451455804    5.21886995164261
H         9.80997206133591    9.28400387735612    4.80980852137843
H        12.21157027249783    9.09124388710591    4.27961051082364
H        13.61746072105772   11.11621058309032    4.17466239554929
H        12.63462679932344   13.32791393057979    4.60856938563681
H         7.66493123712365   13.19640227221272    7.91839618663008
H         5.76652245580261   11.77700948434750    8.61962361936329
H         3.47571009485541   12.69292016414233    8.61110590034764
H         3.07106577892155   15.01470590765762    7.89250328021014
H         4.96892618181177   16.43901754191025    7.18549087765513
H         6.66279133661881   16.93404125473143    9.42427796423387
H         6.43635058909404   19.22135155356148   10.29711425042564
H         7.29602777529466   21.13589258503213    8.99920416785948
H         8.37321405803663   20.75814010699285    6.81225975251451
H         8.57789432526944   18.46481332651414    5.92106044844634

