84
CSD_code = RAHTOK | q = 0 | S = 0 | Stoichiometry = C30H48IrNO2P2 | MND = 6
Ir       -1.03898535497260    5.18418649896009   13.05254015606197
H        -0.53959288940449    4.84838154431078   14.47870384893560
P        -2.58818103214183    3.46091014899229   13.45480486709061
P         0.12438064112770    7.22133482619909   13.20981459164541
C        -2.49480125747606    6.32986507466731   13.89641957482013
C        -3.54063362939778    5.73452082408546   14.61195337295211
C        -4.57659571054496    6.50562069388976   15.11799199642673
H        -5.38265293728972    6.03289596546050   15.66299910442763
C        -4.58252104162310    7.87740767813761   14.93560682561967
H        -5.39563575753841    8.47318187832934   15.32282070595981
C        -3.52925842931081    8.48388380743563   14.27558669380791
H        -3.51409015193731    9.55950627899570   14.15909998717538
C        -2.48515975523929    7.72242268224473   13.76825458266813
C        -3.48051519319791    4.25186269598394   14.86694310890351
H        -4.46715492591294    3.82198214763075   15.04950061462210
H        -2.85805583460832    4.08612300130377   15.75245835845956
C        -1.30966003514896    8.38027645768545   13.09543960006202
H        -1.09347269635378    9.36030247221650   13.52686740274463
H        -1.52086181218234    8.51642850662325   12.03033580621008
C        -4.04368326315415    3.09727188464281   12.27116423316966
C        -3.52071887110007    2.71913178051818   10.88369183394397
H        -2.79033123604545    1.91623632914890   10.91788727335456
H        -3.06575044485437    3.57939730607896   10.40430311421529
H        -4.34993909903495    2.39235336413651   10.25641951323735
C        -4.83387487139980    4.40178237939685   12.13755004922422
H        -5.50631309450902    4.33372104132578   11.28285177339208
H        -4.16528516339463    5.24238680062374   11.97746376451796
H        -5.43222653955750    4.60369819205362   13.02167174869336
C        -5.00319244026904    2.01205447299443   12.75851329672602
H        -5.32214082602492    2.18622921564417   13.78323300828529
H        -4.56854579307729    1.01959735803692   12.67982527078849
H        -5.89397475890608    2.02874168038989   12.13004116721561
C        -1.95011472947374    1.81201414835424   14.17391387097856
C        -0.65208279573828    2.12104918279451   14.92216189769127
H        -0.24089126741799    1.20125402803855   15.33685448702478
H        -0.82050527956727    2.81738246550821   15.74008640056554
H         0.08323516224209    2.55338259948732   14.24887546232521
C        -2.90895290646553    1.14309649943891   15.16095886813039
H        -3.81854838887457    0.78968278611065   14.68975921775684
H        -3.17237800100350    1.81487225183165   15.97389203109345
H        -2.40918155907361    0.27799561664565   15.59686792662415
C        -1.60010034104081    0.85053992179287   13.03785797443288
H        -0.94764815923036    1.33831321700360   12.31556429718815
H        -2.48340414952340    0.47540102526826   12.52751174693083
H        -1.06215248909401   -0.00799100128636   13.43943956626272
C         0.85296593124172    7.61078310361495   14.93430181565509
C         1.88433412875605    6.53625504262242   15.28312319803093
H         2.81084367614780    6.66375825574522   14.73273352959904
H         1.48063099070111    5.55113246871917   15.06203998042337
H         2.11796550514283    6.57959542559366   16.34589142448108
C        -0.29080212105833    7.52345827927448   15.94846558743845
H         0.11394662678889    7.61345833520532   16.95577366693378
H        -0.80415384555367    6.57003073516713   15.87026288748190
H        -1.01779211141548    8.31827238849343   15.80529612308029
C         1.48224266518896    8.99580260132725   15.08422171120241
H         1.75606025037886    9.13785311700322   16.12976843076324
H         0.78054047730958    9.78484042685041   14.82229574278998
H         2.38865878247829    9.10653935349246   14.49680012234004
C         1.31754584803027    7.92081518937396   11.89220581561081
C         0.87313626558049    7.37573536916886   10.53408163176802
H         1.44880190883875    7.85122831879520    9.74009318499886
H        -0.18092196796135    7.56593725345319   10.34373737107261
H         1.05256526172206    6.30641750823349   10.47507368211348
C         1.30891208873271    9.44734205637886   11.79247045438746
H         2.06404342586051    9.75340224521899   11.06846882340577
H         1.53615195767186    9.93511742657623   12.73177807608312
H         0.34691459759161    9.80815712719184   11.43741741931132
C         2.73109560854585    7.39604899434980   12.14551293046366
H         2.70089310632070    6.32819397975550   12.35949763792987
H         3.21699552297174    7.90928476263922   12.97021254337038
H         3.34396945905850    7.54618742021704   11.25659347012617
N         0.12094284124279    3.78409309043947   10.73252405946343
O         0.34691660846212    3.85612335004889   11.96316906472036
O         0.72907883643958    2.98190132038725   10.03158303159699
C        -1.55140365100430    5.47290492480078   11.07786772588876
C        -0.83699488426274    4.64101087285301   10.18731557522822
C        -1.02655538127834    4.62407128599005    8.79989372715865
H        -0.43399812360507    3.95138118760242    8.19790935384757
C        -1.95934263995300    5.46525512761875    8.24864906323509
H        -2.12779952311883    5.47447654118953    7.18233622906608
C        -2.68831465773082    6.31361534291961    9.08361516836483
H        -3.42257838403919    6.97990753482512    8.65106186923166
C        -2.48415668266018    6.31281189077627   10.44781151179162
H        -3.07158928881475    6.98941261693906   11.05604536715814

