31
CSD_code = RAHVIF | q = 0 | S = 0 | Stoichiometry = C10H2F12O6Zn | MND = 6
Zn       -5.55793795165442    3.01115484673333   10.42959461441622
O        -6.63859627758730    4.52271824006310   10.14310816803761
O        -3.51680031470266    4.58329055115956   11.17768366926936
O        -5.78818618388510    1.39226949153600    9.50214444676937
O        -4.40507338956877    1.73424462290257   12.47093880113512
O        -5.60370908738422    2.30179474258035   12.11540866820997
O        -3.95333257282074    3.83288261454767   10.11416881566884
F        -6.62405569324266    7.58854678213314    8.80623034862835
F        -8.23900524420544    6.16752743852479    8.90890741703551
F        -7.86467592581851    7.50077688706999   10.55912719915315
F        -2.37783136346640    5.76875631710870   13.08253738295299
F        -4.05880563529080    7.07512420081687   13.37997164333846
F        -2.63573853947593    7.49902529245226   11.83058243737830
F        -1.90536531269637   -0.39054106959948   11.81545320577553
F        -3.22457299654416   -1.04771282427789   13.37486461087058
F        -2.28446342735335    0.88240961692778   13.50573649871480
F        -6.93326420281499   -0.53158801922794    8.17170660762372
F        -6.67638961810947   -1.80171295046110    9.89166718178006
F        -5.08983004318646   -1.60945203191197    8.45471166867811
C        -6.31642554313776    5.71512192165892   10.25361684114389
C        -5.25627855354172    6.30067348560776   10.97116527943815
C        -4.11510973428594    5.69503725138123   11.45462100305782
C        -7.28301796193325    6.75029648805928    9.61479322103850
C        -3.27949582175179    6.50950387805151   12.45706427882429
C        -4.04269450038889    0.62393792993744   11.91790030926526
C        -4.55914918621947   -0.13378518599158   10.88729431343156
C        -5.46957301675415    0.25754881367207    9.88753911385248
C        -2.84339446336509    0.02174765095591   12.66972280645586
C        -6.06010733634437   -0.93256537326474    9.08203852777082
H        -5.36985851232115    7.34985746106709   11.21135273225710
H        -4.18436159015071   -1.14668907020997   10.81604818803180

