45
CSD_code = RAHVON | q = 0 | S = 0 | Stoichiometry = C22H18Cl2N2Pd | MND = 4
Pd        1.93838322090896    7.05290222859495   -0.00102765076084
Cl        3.41090579973380    8.78095172953583    0.31374634102948
N         3.12630978220012    5.84708571312178    0.93859020056700
C         2.75079490810501    5.34499301611364    2.11074170965321
H         1.79987850697652    5.70008149100428    2.50700354264020
C         3.51606400628741    4.41800528492788    2.81394048946669
C         4.73097913350766    4.02516279908177    2.25137702039507
H         5.34988154700264    3.29698497691144    2.75360589219025
C         5.11632439538251    4.55914416986633    1.03392439664416
H         6.04766848371507    4.26998431471986    0.57318992871505
C         4.28509864439627    5.46773839963964    0.40160318504179
H         4.54725915683514    5.91481533298924   -0.55549040366568
C         3.03915080327501    3.87338612380872    4.09159840844865
C         1.69851308674745    3.52698676121913    4.24812801704312
H         1.01678546066112    3.64159444928465    3.41852920466449
C         1.24910062060792    3.00690249966571    5.44758380862750
H         0.21009680256557    2.73408607593884    5.55715627144588
C         2.12668949718412    2.83491287251942    6.50548468842209
H         1.77260986749635    2.43280178055551    7.44294027035304
C         3.46001027415358    3.17972920645745    6.35817893008114
H         4.14644286159407    3.05059606211492    7.18191580388411
C         3.91662722450668    3.69125125492888    5.15765588104722
H         4.95349034473211    3.97539214032831    5.05186198121472
Cl        0.46624113758542    5.32476774449778   -0.31592676958698
N         0.75066645248542    8.26000848016636   -0.93910317775094
C         1.12363837122659    8.76311063375075   -2.11165888188391
H         2.07442981909168    8.40960056602424   -2.50954181717067
C         0.35557249710143    9.68889483446161   -2.81344511641362
C        -0.85906456062861   10.07960961325402   -2.24883340573122
H        -1.47996631906382   10.80690498777251   -2.74985360406391
C        -1.24158369642099    9.54476661798029   -1.03086963308116
H        -2.17268206990340    9.83223624187292   -0.56861052093993
C        -0.40784064419400    8.63742088185487   -0.40015638262877
H        -0.66793499863413    8.18934566846948    0.55708051796547
C         0.82913717899870   10.23472832797894   -4.09182450671824
C         2.16876974425069   10.58386853439920   -4.25073167129699
H         2.85232542418541   10.47008653670534   -3.42253363727955
C         2.61483311773894   11.10548040608526   -5.45077289911730
H         3.65307645401617   11.38039437114209   -5.56220563413188
C         1.73489764316731   11.27624152394475   -6.50691553609986
H         2.08635056727839   11.67969035363230   -7.44478060713243
C         0.40258030782305   10.92857535522805   -6.35727964479235
H        -0.28569390782538   11.05681902593537   -7.17960945672195
C        -0.05071380800407   10.41555587850151   -5.15614634484567
H        -1.08680313884841   10.12930473301240   -5.04851918772523

