69
CSD_code = RAHXUU | q = 0 | S = 0 | Stoichiometry = C23H40ClN4Rh | MND = 6
Rh        8.78054947865260   10.41161865927035    2.16179964726269
Cl       10.45857990342365   11.86535179906290    1.63770627273399
N         7.29078277744029   12.91238431114666    2.01787508725771
N         7.01287290065533   11.81058122176960    0.17038754018073
N         7.28582605538134   10.84088359853253   -0.77495245361357
N         7.71989917540537   13.15366628195071    3.30014756983433
C         7.26223757631218    9.23621396376570    3.08319629180847
H         6.35397928256402    9.81660924096830    3.23555936831914
C         7.49707653857170    8.78468383227432    1.78208615364827
H         6.76391267437772    9.05131294070749    1.02401893742400
C         8.28552806720129    7.54538994693812    1.42568395062819
H         7.67586698375336    6.65636889038293    1.62727299802863
H         8.47524042157910    7.56930306519513    0.34945537058320
C         9.63152469997983    7.44322991748339    2.16576886745553
H        10.33534659403037    6.88495782651560    1.54436803417438
H         9.51434254324499    6.88752911955159    3.09752358688282
C        10.21071300751889    8.80675179904842    2.46832515974499
H        11.09291374088580    9.07124692707749    1.88582301434734
C        10.00052773112323    9.47723724998676    3.65584478750161
H        10.73973381760744   10.21781353063480    3.96397880291990
C         9.12982485127524    8.97487601133457    4.78570233624917
H         9.64860590630686    8.16166828728531    5.30652024523288
H         9.00647121832272    9.78924915679450    5.50457292736301
C         7.73874129766979    8.50147124940352    4.32036271957569
H         7.02378877674993    8.66343744986179    5.13101856309187
H         7.74990920393275    7.42925641428106    4.11629893587959
C         7.56974905930083   11.77322870533645    1.38417988538194
C         6.45795172461959   13.82307204490319    1.22319462701522
H         6.91530997504063   14.81333304512649    1.16742767809792
H         5.45956255436966   13.92414128938968    1.66186507812357
C         6.41673505416040   13.12139502891924   -0.13318949523461
H         5.39336018997131   12.99826424941747   -0.49909052037727
H         7.00345061709373   13.64945179465966   -0.89128136489001
C         6.30839196931391   10.65497225155312   -1.83718592374370
H         5.87438283541364   11.61189842227078   -2.16826788419952
C         7.10980323520840   10.02475426872182   -2.98887107817356
H         6.61432755725132    9.13846756860199   -3.38092841931623
H         7.22289589601232   10.73615503780178   -3.80695854897744
C         8.47457692021849    9.69577378939997   -2.37873077954420
H         9.27515158523754    9.71432168707416   -3.11465304566305
H         8.44702754347977    8.71016765234752   -1.91533692245598
C         8.65025898855059   10.76092860660468   -1.30135222594948
H         9.29996232828866   10.41556344453158   -0.48291857642721
C         5.17440153511560    9.75854471388574   -1.34117339182518
H         5.56382545788855    8.77766638445295   -1.08268811833331
H         4.41463469358241    9.64656490386365   -2.11090335341104
H         4.71262445163573   10.19029176152064   -0.45580290664089
C         9.20520839917356   12.07944628862570   -1.83699909328451
H         8.53994979227629   12.52254168972806   -2.57674584475758
H        10.17307800371340   11.90536253412949   -2.29946015954451
H         9.35705855576629   12.77352633312548   -1.01340047131358
C         8.18479080950772   14.49373552324123    3.61895235439316
H         7.37490696825225   15.24354041709979    3.51499101511981
C         8.51879975560721   14.31565045278631    5.09725768131005
H         9.44677674542191   13.75048858558783    5.17423196501850
H         8.63044480507646   15.26311109791060    5.62095618699843
C         7.34369733006721   13.48761508601471    5.61549436720412
H         6.52460887454133   14.14563820933714    5.91185418537315
H         7.61626083155545   12.87949904804021    6.47577774223563
C         6.91604499409128   12.62911729517067    4.41454918697007
H         7.21703127502105   11.58397633950373    4.55539913379046
C         5.40492774651073   12.67427861976243    4.18682693360777
H         5.06347957343745   13.69761945471795    4.03769814277778
H         4.89469375361199   12.26811619342591    5.05734173463758
H         5.12821395704150   12.07492085757271    3.32113071153722
C         9.38282677600470   14.90116305953051    2.77631122161906
H        10.06190526007143   14.05802012632188    2.67953708024492
H         9.90081653431420   15.73256835948197    3.24758983487240
H         9.08529986356711   15.20691508758416    1.77602666337769

