78
CSD_code = RAJBOU | q = 0 | S = 0 | Stoichiometry = C38H34Cl2NOPPd | MND = 4
Pd       12.03894201212477    2.76957093753140   15.39500815896722
Cl       13.88960950917247    3.23729781502098   16.59120237766165
Cl       13.29630454756095    2.87510143288481   13.48369383054844
P        10.99223201319182    2.83767298434264   17.37003999773755
O         8.14531776748898    3.34249750775292   14.11244472835051
N        10.16906687844670    2.25867860352924   14.42556927242373
C        10.07074510613407    2.64133539423031   12.99052681634706
C         9.78224805860860    1.30817293754147   12.27952338475720
C        11.07945569808970    0.48757801270210   12.33989266041228
C        11.18398116910560    0.13358983863019   13.83790664346117
C         9.93177640450802    0.79625708006600   14.42516026333550
C         8.91091753766784    0.59136745461825   13.30757937948710
C         8.93227688943082    3.69563311662639   12.96254341002013
C         9.08569248072850    3.04093096588271   15.09693121612648
C         8.11258530937942    3.60899006284371   11.70022614666102
C         6.78235020994991    3.21930507876690   11.71472368300252
C         6.06475445489480    3.14842583324807   10.53265795173391
C         6.67106032847520    3.46630305438641    9.33058142764869
C         7.99925708829149    3.86162585554105    9.31272766765425
C         8.71794112570992    3.93527444732452   10.49074829251785
C         9.42359661421868    5.12976461586083   13.16651809835457
C         8.52272215924558    6.15848865155284   12.90522655830661
C         8.86170428004130    7.47748771692489   13.14134361690899
C        10.10913264079014    7.79332241231140   13.65194816004195
C        11.00603921339050    6.77862285757745   13.92975531960290
C        10.66788111000731    5.45386868118389   13.69876011843027
C         8.48882809634042    2.34698963196936   16.28922458051083
C         7.18622089631231    1.87907581286333   16.28667519811643
C         6.68076235813647    1.22243860609892   17.39750232907220
C         7.48165630607726    1.01724321893822   18.50727190709703
C         8.78391737418549    1.48873888676543   18.52015878036918
C         9.29121446374961    2.17292580453649   17.42312570344965
C        11.83461430175761    1.94440823550156   18.70018438600138
C        12.43243715553181    0.74935935780659   18.30370572184081
C        13.11764707721117   -0.01830778599600   19.22406610136795
C        13.21658935847717    0.41081338356730   20.53947615225516
C        12.63818682108485    1.60694869727910   20.92975107569735
C        11.94565839242232    2.38042944325086   20.01328701018785
C        10.71516465094610    4.54807423193844   17.91585076703102
C         9.81107151499515    4.87339216525486   18.92342793545346
C         9.62030921672287    6.19849946721753   19.27001603193535
C        10.31537657393789    7.19928151668419   18.60907191433646
C        11.20371991789423    6.87850235629262   17.59563034470058
C        11.40411058527789    5.55563828260771   17.24519716398265
H         9.66553982312036    0.43702235121700   15.42113418349989
H        10.99773153067710   -0.40664737229645   11.72278330033917
H        11.93846917472837    1.06687227987622   12.00582626873831
H        11.15409687841255   -0.94285223624721   14.00708226152241
H        12.10601987715587    0.53122371846320   14.29894915143231
H         7.95692514415906    1.07846236725146   13.48934278784782
H         8.74949671590330   -0.45890555331613   13.07539185662903
H        11.01104951812503    3.06001543669943   12.62442417900037
H         9.37303440922532    1.42588681640374   11.27958787245369
H         6.31064279663612    2.98529843317640   12.65625695187887
H         5.02802674923386    2.84582708329924   10.55312805806499
H         6.11049593773051    3.41068426538719    8.40932629336542
H         8.47582541551551    4.11499937760444    8.37761856908826
H         9.75178098075757    4.24722869222355   10.48025520104999
H         7.54542691726103    5.91759086587415   12.51378166367231
H         8.14874871991897    8.25945625694521   12.92526878990268
H        10.37816944634736    8.82341517754946   13.83277606129273
H        11.98381873973966    7.00960653007764   14.32515138554555
H        11.41898978078510    4.69542071201768   13.93023387406978
H         6.57179975082326    2.04026432532994   15.41510216631184
H         5.66278403138812    0.86352382994934   17.39054741407064
H         7.09320097040796    0.49244002413085   19.36733708610853
H         9.41302418784283    1.32596971860996   19.38445820710378
H        12.37556117282230    0.45280512764060   17.25507064300324
H        13.58774527674956   -0.94132618055226   18.91904919040015
H        13.76081764745828   -0.18280284764857   21.25894730242367
H        12.73392384741833    1.94501887031143   21.95122500681185
H        11.51033854655544    3.32392235221494   20.31126460372470
H         9.25375003901153    4.09308861445850   19.42400935328809
H         8.92328438200133    6.45240883852154   20.05532402969688
H        10.15905524903207    8.23205896027207   18.88317123898123
H        11.73861987391904    7.66072176894194   17.07873493318964
H        12.10803919733506    5.28831236395550   16.45656671453860
H         9.54089160410598    3.99227437018960   15.45451111705067

