75
CSD_code = RAJBIO | q = 0 | S = 0 | Stoichiometry = C36H32Cl2NO2PPd | MND = 4
Pd        3.16187041381531    3.61761884378238   10.93705585058839
Cl        1.73346434700573    5.27772961516374   11.45168963106581
Cl        4.99990659205555    4.95869771344933   11.27519338512102
P         1.38306883719179    2.27453507984513   11.14991599524497
O         2.86761039154143    1.40519269649032    8.85563524792463
O         6.77912793125835   -0.10220974594130    9.68581826684835
N         4.49304428659714    2.05483276766086   10.25784853388751
C         3.76668527370026    0.85789833743276    9.78053410481732
C         5.74706297366505    1.75572023764682   10.93309022756469
C         6.73051842667140    1.30571904863926    9.82521414450981
C         6.15320814430137    1.90483960417585    8.52896357331248
C         4.87102006303332    2.64600021351725    8.96272219900187
C         3.58810864556337    2.42613695174202    8.11832416690136
C         3.04261561036702    0.05348415593880   10.82017738293649
C         1.88141536044675    0.53825218579845   11.41640119142366
C         1.18486222571742   -0.27462123660020   12.30708948452721
C         1.64477780791902   -1.54199170788734   12.60981917788817
C         2.81594411849974   -2.01027096943300   12.03511174845565
C         3.50490952856332   -1.21860714222677   11.13467704543524
C         3.90264874516648    1.97914710682533    6.70500365182255
C         4.58639549290934    2.84855143540316    5.86235257877121
C         4.87848871058960    2.47145303901303    4.56552186039907
C         4.48794181880984    1.22713423643373    4.09704989446887
C         3.79998997559068    0.36394974842335    4.93054998718506
C         3.50601841705798    0.73836011168388    6.23078855634471
C         2.64487649697266    3.62642050720710    8.02107219012866
C         2.99379406235995    4.94730331401181    8.31157585970799
C         2.05088258997763    5.95659907445761    8.16692037766214
C         0.77353201575574    5.67219780515855    7.71938466990933
C         0.43512890537140    4.36972230012353    7.39663272617283
C         1.36230452858542    3.35621224145936    7.54796513271233
C        -0.13617439298387    2.18894940411002   10.17733501287500
C        -0.92472348895712    3.33570565811005   10.11290554976499
C        -2.09740873709899    3.32015319691916    9.38198206983754
C        -2.47733218104146    2.17315327550189    8.70174990388336
C        -1.67923467277263    1.04179345874353    8.74592907701248
C        -0.50725350515589    1.04487790757159    9.48168367982128
C         0.81923108970536    2.63190190457510   12.85073264992149
C         1.82989117703409    2.92786331148940   13.76619531106071
C         1.51669665538390    3.20452341098231   15.08235067894748
C         0.19308911294848    3.18892421477070   15.49564456712132
C        -0.81185750530059    2.89329307915328   14.59167758013445
C        -0.50334106792344    2.61043818617788   13.27132264957706
H         4.48042080337605    0.18834376592737    9.26953178044139
H         5.12188585722206    3.69878835765347    9.10949415669056
H         6.85352440731681    2.59209828818821    8.06071735938074
H         5.95578802360235    1.09471615599035    7.82648539978916
H         7.73634446333134    1.68983708442333   10.03030729439205
H         5.59545046054072    0.98628212068764   11.69466784721262
H         6.10407205422467    2.67960215003828   11.40055747124047
H         0.27824054742406    0.09609520075127   12.76351013997369
H         1.09350389942674   -2.16380872603202   13.29927519889685
H         3.18558426539761   -2.99449458491815   12.28025775071817
H         4.40688609093790   -1.58664839613638   10.66576568855048
H         4.88373275538318    3.82050669119218    6.22646517448101
H         5.41092804380724    3.15061558665434    3.91672433296271
H         4.71698323154488    0.93433496980238    3.08335018528160
H         3.48926950612240   -0.60555562058753    4.57005047730035
H         2.96373986505558    0.06925135659831    6.88229776494667
H         3.99809799780619    5.23621846157185    8.60323164524311
H         2.32614549687082    6.97124008409731    8.41158503611306
H         0.04778943447242    6.46454909435799    7.61550046356121
H        -0.55267946703213    4.13710413041144    7.02783337392909
H         1.09887804393524    2.33817733726160    7.30313852093430
H        -2.71562980499859    4.20481428725067    9.33902669770977
H        -0.60010416143418    4.22784558113261   10.63238972384293
H        -3.39432065399010    2.16291253457904    8.13052042121789
H        -1.97184190293943    0.15292133065779    8.20520016085359
H         0.12210801142306    0.16654130584883    9.51535563725460
H         2.87552759766233    2.96453663817177   13.42930216076432
H         2.30011751484882    3.44504284096763   15.78576797632175
H        -0.05384473706790    3.41763593617260   16.52186417380179
H        -1.84362072748278    2.88836671614277   14.91190018963038
H        -1.29295501890023    2.38810128814136   12.56662587059616
H         7.29527288120165   -0.47785654451617   10.40639235325398

