75
CSD_code = RAJBEK | q = 0 | S = 0 | Stoichiometry = C36H32Cl2NO2PPd | MND = 4
Pd       23.72979032755429   -1.53082811282924    8.95198070039282
Cl       23.73789939502143   -3.51083159907631   10.00644389810386
Cl       25.87107274839407   -1.16071438280748    9.62472125923330
P        21.73072731673393   -2.09634104751710    8.10685677944352
O        22.18732559997819    2.19357754025643    8.12889338853215
O        26.09696008626507    1.30863790672042    5.53849227215269
N        23.62736883507823    0.39009680326542    7.99968767788006
C        22.18973305508777    0.80974141873424    7.97341953892975
C        24.25289331656443    0.28309498428912    6.66855298447578
C        25.61856136120926    0.95528489838465    6.81138862895513
C        25.26080988344082    2.14436424233093    7.71129988529896
C        24.31066023380835    1.50242434153256    8.72065483372057
C        23.14588535936553    2.40699555275827    9.17935838276086
C        21.44951719866947    0.31239450932690    6.76846991223131
C        21.05101344278730    1.15169945236962    5.74288626365694
C        20.38823092125781    0.63109874033262    4.64261764201208
C        20.13970214346626   -0.72815925622786    4.56117898884647
C        20.53624895903647   -1.57264279979673    5.58524327125244
C        21.17865099892844   -1.05867111493738    6.70438522520701
C        23.55253520888926    3.85687121298890    9.25857532780486
C        23.03487562162412    4.80533285786785    8.38979293440985
C        23.43193578191038    6.12801562749789    8.48791634328362
C        24.34761924774755    6.50921412400438    9.45245823000310
C        24.86486885765497    5.56370293844200   10.32330802037593
C        24.46926345333903    4.24263468207685   10.22978145342571
C        22.51782218396933    1.97441378201301   10.50562403487944
C        22.81306508906737    0.78472735070134   11.16766833949734
C        22.14504764128526    0.45706410614558   12.33871246792486
C        21.16980361175658    1.29205416228589   12.85249152564058
C        20.85966183888194    2.46721101157027   12.18953921230068
C        21.52802836273503    2.80269836453434   11.02725729909080
C        21.78191581416544   -3.75783031078793    7.38448405787404
C        23.01017405483113   -4.12181402110924    6.83451825871491
C        23.16633013608437   -5.36833425311868    6.26106605994245
C        22.10102669425203   -6.25647940465157    6.24356174609355
C        20.88477754400438   -5.90067836451030    6.80204118064851
C        20.71881796194466   -4.65104868811791    7.37493363038708
C        20.30318266120327   -2.03141728335080    9.22421955455889
C        20.57443212841005   -2.05142010597172   10.58937032132419
C        19.53564511604592   -1.98019277172611   11.49902964998059
C        18.22864197271318   -1.88389423292028   11.04923130636504
C        17.95819194795564   -1.85631437105457    9.68993833124698
C        18.99114001547671   -1.92518042652543    8.77274612670920
H        26.98474209874779    1.66968522465230    5.62964619409973
H        21.70350895122102    0.35993512304283    8.86854183391156
H        23.69041518138009    0.84088420081890    5.91145735249898
H        24.33158709995438   -0.76483120479446    6.35064045819791
H        26.31662952458638    0.28483049808060    7.33220920088638
H        24.75236436440259    2.90246352639337    7.11102142039261
H        26.12523972074949    2.59204052854415    8.19702956344062
H        24.89840918215300    1.11038274661064    9.55372667505731
H        21.25888266041922    2.20791442173325    5.81809225907239
H        20.07512373963281    1.28741019228439    3.84488343444653
H        19.63395059686666   -1.13482451227527    3.69814289756585
H        20.34762446944766   -2.63512269923161    5.51784910423104
H        22.31647744147523    4.50017587551609    7.64502662360396
H        23.02321024061647    6.86175057583880    7.80875559556294
H        24.65652435177450    7.54107781786705    9.52848892313006
H        25.57764631438738    5.85757422984287   11.07918009503450
H        24.86656827329078    3.50568667880650   10.91188225290074
H        23.57722061810542    0.08321260367080   10.81523449998791
H        22.39891466436982   -0.46083540698687   12.84764910815357
H        20.65352949037349    1.02954069713798   13.76372988144900
H        20.09706083242698    3.12602849365283   12.57770679783337
H        21.28300467254153    3.71731247931207   10.50757630975420
H        23.85185185774887   -3.42456450322033    6.89544106792240
H        24.11825411562200   -5.65709298732512    5.84122276172238
H        22.22503730100609   -7.23574477200518    5.80551848518324
H        20.06313553214962   -6.60191732651140    6.79920939087423
H        19.77598248010102   -4.37525453920298    7.82678530711367
H        21.60658218003149   -2.13441410493943   10.91874965131573
H        19.74365262919823   -1.99796033664954   12.55804427343117
H        17.41631599779359   -1.82663683181823   11.75854986240059
H        16.93809390511303   -1.77729466896428    9.34325108370782
H        18.78360538371671   -1.88857008327278    7.71196068956268

