77
CSD_code = RAJBOV | q = 1 | S = 0 | Stoichiometry = C29H38N3NiO6(1+) | MND = 6
Ni        6.64349372721114    2.93499665227951   13.50406776990226
C         3.32374456680023    0.36051530882408   11.67706243536854
C         3.55639508397135   -0.51946669226420   10.62935700811114
H         4.55756081005340   -0.88935038589055   10.46052069071867
C         2.51977061198298   -0.93579108863280    9.81285449058801
H         2.71369372349554   -1.62418325866368    9.00517746184766
C         1.23412747357254   -0.47224058903968   10.03561705964021
H         0.42383123129374   -0.79699416703190    9.40189941762956
C         0.98371192569055    0.40903122463628   11.07256283696241
H        -0.01317663018347    0.78219915377343   11.25058212190415
C         2.02553877860580    0.83184500068810   11.88449298587297
C         1.25398019789224    1.18438734993561   14.07551952230526
H         1.83831844580117    0.30534034050112   14.38010096815165
H         0.21513383187782    0.87277890612847   13.90693291483254
C         1.28188353591380    2.22600274423969   15.18686680608251
H         0.76675903427257    3.13457662990686   14.85127212710074
H         0.76493631585589    1.80964692399268   16.05841542970218
C         2.88720867617265    3.24781412175087   16.63768631602159
C         1.90702328441851    3.77818586533562   17.46688774086391
H         0.86170662558968    3.65031245582549   17.23875834559185
C         2.26173003688867    4.48619212820790   18.60334004012145
H         1.48624045836544    4.88659123686987   19.23707447204620
C         3.59180643178640    4.68008868776897   18.92254694092082
H         3.86730921535046    5.22763397808297   19.80919559663728
C         4.57073269757558    4.17220744302914   18.08600723127923
H         5.61240770178511    4.33022815889495   18.32200895330118
C         4.24021327946773    3.45768731676401   16.94585789637233
C         5.32308249665861    2.92735888105647   16.03557991228433
H         6.29818991439321    3.18420081114304   16.45595417088890
H         5.23295288994378    1.84067895609476   15.95472674237900
C         5.25703177519109    4.95097115614937   14.67708824339062
H         6.24428538929892    5.28494964114427   15.00875490109158
H         4.50554245872992    5.34833053493144   15.36960956414582
C         4.99050518475534    5.43040606512506   13.25173580515121
H         3.95196287147275    5.21747273996627   12.98602560543712
H         5.14561009483323    6.51163783017831   13.17910157263612
C         5.25472430368429    4.23166000044071   11.11090675191907
H         6.05008990296285    3.98160812162456   10.40523836614878
H         4.62431443282772    5.00887615449420   10.66089029998257
C         4.40522308158627    2.97807976408548   11.37015778063083
H         3.56981422331978    3.21039880842298   12.03455725860088
H         3.98386870121872    2.63679529857557   10.41659890343080
C         4.43511552890964    0.83871970061163   12.57808820068795
H         3.99708033889443    1.18454587408398   13.51636455491667
H         5.12111257745149    0.01970004314633   12.79937388175539
C         8.76472867529945    3.38642958197003   11.87039958135607
C         9.68287818562696    2.98793634134071   10.79239486436641
H         9.58219860157222    1.97233884192303   10.44404152362974
C        10.57880125466081    3.85885086890727   10.30788955333439
H        10.58167512122574    4.84931017327090   10.74912131924661
C        11.55137405211481    3.63569858296546    9.26078121606041
C        11.66835037023833    2.42219760270247    8.57594788567024
H        11.01194239135256    1.60100939026055    8.81881910075623
C        12.61850205410013    2.26305554034526    7.58733622973456
H        12.69819189565151    1.32061040614939    7.06641721394129
C        13.47072713778534    3.30706685078999    7.26064474499690
H        14.21248243057203    3.17760833207479    6.48746373266918
C        13.36671884208288    4.51639178718756    7.92944945140512
H        14.02807377242271    5.33168621846702    7.67801484722009
C        12.41695936756844    4.67981901423243    8.91824212098663
H        12.33804086172100    5.62348530520982    9.43846691720805
O         1.80483444003438    1.75269493233052   12.90186383135059
O         2.62984166274816    2.52296919299988   15.50081114813092
O         8.76906037763980    4.53600162090030   12.34637409913404
O         7.97295524889077    2.46972596555740   12.29075254257128
O         7.08945169855895    0.91239835834433   14.47126752216677
H         7.60759704293956    0.49632139089195   13.77231074752062
H         7.67344815656063    1.01998631359104   15.22854543722109
O         8.17867040631048    3.92059191217856   14.83996790695215
H         8.47194180167542    4.40843276822753   14.02433464172880
H         8.95619566377841    3.44334566884234   15.14105511674977
N         5.22172366573995    1.94231783052718   12.00561061114037
H         5.85179295002067    1.56371469159060   11.29862469185093
N         5.87343087824845    4.68496269337715   12.35048168004187
H         6.72208335519466    5.21551699730388   12.15754172515148
N         5.24713893615549    3.48141307951674   14.67850265868688
H         4.34610146391475    3.17818591888293   14.29870724163886

