46
CSD_code = RAJHIU | q = 1 | S = 0 | Stoichiometry = C13H23N6O3Zn(1+) | MND = 5
Zn        7.45095758619625    4.81359991650412    0.35077278153022
O         6.76911950773887    5.99069787151683   -1.17677415959053
O         8.70981152147271    6.29481892044282   -0.37971955369433
O         8.14184586929643    7.27110094241058   -2.18772514139931
N         7.42634435642602    2.48984643114426    0.66869155006133
N         8.97551087607700    4.43770095970719    1.86783885765898
N         6.84884073109215    6.25246289595730    1.88070260141150
N         5.33169622343683    4.26708756789757    0.62774987122697
N         8.32207774757102    3.53883108154074   -1.14163515791512
N         7.88462509678268    6.54440757046057   -1.28085768580204
C         8.21598985980927    2.10153942807844    1.83013748769620
C         9.41392151358700    3.04679978563071    1.95782924539590
C         8.52994566365367    5.00541492548354    3.13961109238471
C         7.91926897796122    6.37862636227374    2.87054578523639
C         5.54680475274066    5.89106131967605    2.43990761067391
C         4.66216564400188    5.37847666929660    1.30537357312407
C         5.12407920000469    2.97308831863423    1.27155173369505
C         6.06894096587322    1.95163759044438    0.63878074890981
C         8.12096429322352    2.35882522049494   -0.56623458516253
C         8.94371499577902    3.59657428103295   -2.31279989479678
C         9.39421766831608    2.45592755705324   -2.95867985666359
C         9.18545724791732    1.22238921502208   -2.36088492215333
C         8.53420078968914    1.16658438065376   -1.13636549565121
H         8.57488244452259    1.06664350823359    1.76417616755714
H         7.57630502624478    2.18524706993952    2.70949404472454
H         9.93502991492201    2.84738582573552    2.90132685608888
H        10.10688972850616    2.85185775906801    1.13722477889599
H         9.75061412422437    5.00821201212075    1.53805469427113
H         7.78155102716581    4.34010048846333    3.57311481573359
H         9.35619399229784    5.10445190223005    3.85298879563406
H         7.55682112758739    6.82050423513634    3.80518129672129
H         8.69215781996474    7.02645863728477    2.45288341197750
H         6.73992876824575    7.14552273479105    1.40660701404354
H         5.69320126069678    5.10496471447961    3.18195882279695
H         5.06204336411470    6.74007346769688    2.93400568846156
H         4.52414629749349    6.17945182615609    0.57752517248195
H         3.68245828932442    5.08251796696441    1.69559161745599
H         4.97313396606477    4.21353430617913   -0.32223507889263
H         4.08899441206184    2.62589458161344    1.17495496648104
H         5.35371123138277    3.07419046463910    2.33342128796080
H         5.99640795896165    0.99090583535726    1.15917449834959
H         5.77957711781494    1.80117926132726   -0.40382858047169
H         9.08597604671015    4.57659934035122   -2.74482786821427
H         9.89474399289462    2.53496228220853   -3.90951214039962
H         9.52076131737216    0.31513995581498   -2.83888989617768
H         8.34766968278002    0.22450261285253   -0.64520685165608

