57
CSD_code = RAJHOA | q = 1 | S = 0 | Stoichiometry = C21H27N6O2Zn(1+) | MND = 4
Zn        8.11692399907986    2.93048816342109    0.38767102369403
O         8.46880597462229    0.26003487226216   -1.45576914303188
O         8.71610026328564    4.72010078346379   -1.80293377063484
N        10.10778494270438    2.97974942414888    1.38306016190851
N         8.05486203100256    1.06581789181446    1.39959987982751
N         6.02219075052025    2.95587464479853    1.00869920187831
N         8.01625795318245    4.89226238204113    1.07982868709578
N        11.62467181785524    4.37342358998951    0.27118584877847
N         8.37231382779742    2.52777564485841   -1.41874953499621
C        10.29671813999607    1.71675806056313    2.11068774563851
C         8.95802781717182    1.11759051225934    2.54675986574514
C         6.67128718160467    0.72333583899370    1.73197739363784
C         5.89731717050151    1.98945107906450    2.10220287818925
C         5.66668523157840    4.33068968314128    1.36950687737638
C         6.87779827096068    5.03246765646045    1.98720996779061
C         9.30334822137291    5.30657448166794    1.64461561260227
C        10.01961457078697    4.12539619402313    2.30033578456451
C        11.04708738226432    3.18522950955985    0.32130221459687
C        12.43925454054574    4.65521960816484   -0.73250175906596
C        12.72590773903556    3.76108183790992   -1.74750849887370
C        12.13728757632618    2.50622900450460   -1.68745018892125
C        11.29004274166296    2.20115233108657   -0.63723322811601
C         8.60586220842720    1.32365330892701   -2.02978066553438
C         8.74922220143367    3.57414233705200   -2.21367399809829
C         9.19064558769342    3.01383399706529   -3.50878353492998
C         9.64571786938118    3.60934995409714   -4.66553223790682
C         9.99813064910625    2.77594512675450   -5.72434254550687
C         9.89888593901756    1.39779534643329   -5.61788040642316
C         9.44477909658521    0.79502295438466   -4.44696081482412
C         9.09232070279343    1.61908251043789   -3.39984995408661
H        10.79970272476648    1.00343088278229    1.45849412262279
H        10.93594038606365    1.87476599308184    2.98656057743318
H         8.49946213931360    1.74116616152456    3.31801793196322
H         9.13503940354459    0.12416732907337    2.97591341440694
H         8.40055692997068    0.37871560256179    0.72520124194464
H         6.21486586704946    0.27384715147275    0.84795833882614
H         6.62062010705292    0.00215005272132    2.55483186531541
H         6.32243231908946    2.43202773057833    3.00466213248026
H         4.85153679324097    1.73584616654266    2.30750090545289
H         5.42087423624681    2.64445004475766    0.24966636061856
H         5.38478017115128    4.86079721924671    0.45723395662668
H         4.82028101009207    4.36090802688363    2.06473584107206
H         7.13542745906683    4.56654960198798    2.94100391093150
H         6.63278086570731    6.08348863620118    2.17618045531983
H         7.84257526310701    5.46064359926749    0.25104868869422
H         9.93347218614661    5.67180793298682    0.83349351242076
H         9.17475554048482    6.10393783106861    2.38338394061381
H         9.46665673553889    3.80091928517655    3.18341787835922
H        11.02049982772227    4.44978920778657    2.60131687725971
H        12.86963093445432    5.64653272240641   -0.70777864258791
H        13.38395132269911    4.03244508680792   -2.55583681650896
H        12.32930285438350    1.76984091492280   -2.45331193455523
H        10.82248249400549    1.23019171724415   -0.59527817216121
H         9.72152232094769    4.68247345613412   -4.74420844473659
H        10.35479792306180    3.21239155458916   -6.64488960309170
H        10.17815586611763    0.77915960134613   -6.45720333475400
H         9.36694392068197   -0.27757223850825   -4.36090786636100

