35
CSD_code = RAJLIY | q = 0 | S = 0 | Stoichiometry = C10H10N4O10Zn | MND = 6
Zn        1.32647049517392   11.20699172282663    3.04473710808670
N         0.67855617654578   13.06276141206376    2.61528932866382
N         0.19734890100202   15.17685141811202    2.38768440170999
O         2.61254492789029   11.53092221668428    1.57094428494644
O         3.37803735802017   13.18989724910182    0.29554054798392
O         2.86011813123535   15.71425868932642   -0.02537714833870
O         1.36808470065947   17.13882233069214    0.81305790519764
O         2.64601190624572   12.16804058309560    4.57167699779312
C        -0.12050250738478   14.02952099276285    3.00235025683999
C         2.61536807892390   12.71350971645212    1.13982966453120
C         1.55569423678588   13.60058817092744    1.72530806300585
C         1.26431694608896   14.93636848018098    1.56460888148925
C         1.85030693949065   16.03280596521016    0.73923483661730
H         2.17539061796678   12.12419738180731    5.41099555360285
H         3.52764763487861   11.80596148811299    4.70234327733957
H        -0.91618351719696   13.90893612784297    3.71027975550516
H        -0.22640165239186   16.09037689400968    2.47889926003865
H         3.14095779239221   14.73309569157197    0.03192186005365
N         1.97441292831459    9.35123498760321    3.47409475107272
C         2.77353337229336    8.38451728963678    3.08712233565481
N         2.45576708218665    7.23720509162771    3.70187286591141
C         1.38865518143639    7.47762769566932    4.52477121081853
C         1.09728916477209    8.81341581662897    4.36408556763520
C         0.03789126692278    9.70059702092530    4.94985983610899
O         0.04044707793237   10.88313796434265    4.51861083921174
O         0.00751743364680   10.24560015705752    1.51744653129193
H         0.47813763786813   10.29002311697870    0.67825502671401
H        -0.87418827784899   10.60759924080806    1.38715895283993
O        -0.72463375710718    9.22425246505157    5.79429383318919
C         0.80252745911891    6.38112932380822    5.34994966282891
O        -0.20690134249347    6.69982182468656    6.11500090658457
H        -0.48840411927616    7.68074705254766    6.05693219095304
O         1.28534662545077    5.27531179842129    5.27683004610783
H         2.87959582147957    6.32371009708652    3.61073923662099
H         3.56933927897697    8.50516252633898    2.37935137138970

