65
CSD_code = RAJMEV | q = 0 | S = 0 | Stoichiometry = C30H25BrClN5NiO2 | MND = 6
Ni        2.04534131230710    5.48273291327282    3.36792052426106
Br        0.64735895429128   -1.00480455918469    6.48259057122342
Cl        5.83296837374060   12.05610597951680    7.16613338173843
O         2.61875010959650    7.24484131030197    3.84451899631423
O         1.60390148362049    3.73843283147758    2.95105634496687
N         3.21866559206717    6.07059290867268    5.70004082028845
N         2.60449873939730    5.03055315656046    5.07268849000483
N         1.48499467802434    6.05239078193677    1.63804870772987
N         4.40083860696467    5.11365843484653    2.68716198488517
N        -0.16681557182282    5.80054997993583    4.43458067227519
C         3.81710893944689    9.55583169888406    4.81950255016589
H         3.31744287043301    9.56865404017563    3.86256184036150
C         4.42962164498145   10.69181649626208    5.31070349572830
H         4.41980436948369   11.61219807222759    4.74764342186042
C         5.06213939836850   10.63902555245555    6.54309114513339
C         5.08681024472836    9.46664478533981    7.28452390287923
H         5.58392296832890    9.44634146755864    8.24190537886339
C         4.47146154218788    8.33583599327083    6.78528991320875
H         4.47823608890113    7.41348733698369    7.34296630352151
C         3.83101489404174    8.37004620158206    5.54939197304073
C         3.18280180174607    7.16966041399039    4.98778966170892
C         2.48836602270490    3.90649797263304    5.72039473384957
C         3.04109617879199    3.80526597906581    7.11451913767704
H         3.61995376087650    4.70036141027033    7.32217993609079
H         3.67644999785486    2.92800752169990    7.21230262341203
H         2.22914774122607    3.73641142847106    7.83705556007025
C         1.84814626201744    2.75749408635034    5.13329601125306
C         1.59387883948655    1.62042624446577    5.91285818842927
H         1.85121655722316    1.61410163143802    6.95953565202695
C         1.00047740245488    0.50933369550909    5.36906992141003
C         0.64595690291425    0.46244903008000    4.02369775048396
H         0.18989585719057   -0.42477847758344    3.61101478167415
C         0.87809480535008    1.56125282076028    3.24213336200065
H         0.60747759841916    1.55944921756681    2.19701259966781
C         1.45972121852965    2.74953375107995    3.75507103174382
C         2.06579094844610    5.56381395800924    0.54577369178907
H         2.84283068031219    4.82833590943922    0.70666339476057
C         1.70681728888046    5.96469738101569   -0.73070765990115
H         2.20611208243770    5.54287499786614   -1.58900552146515
C         0.70326762167436    6.90788822456606   -0.88157086166092
H         0.39902430096723    7.24144672245844   -1.86268986047054
C         0.09882530337138    7.41101837789977    0.25917092630218
H        -0.68916249561211    8.14486943225294    0.19238750696471
C         0.51929668108416    6.95676826611009    1.49841797711073
H         0.06913614989048    7.32338761667539    2.41191751487418
C         5.08147448755996    6.25694008585643    2.68896993906414
H         4.66053041917123    7.05832261489541    2.09522542036056
C         6.24858352706626    6.44774488288518    3.41042864783024
H         6.74659247070215    7.40490266190849    3.39775609016976
C         6.74989092488918    5.39060384837313    4.15185103491559
H         7.64865589662931    5.50555194390823    4.73994842847339
C         6.07745602029128    4.17958937201801    4.11360812449506
H         6.44159803369530    3.32230419434426    4.65833785758169
C         4.91420704619875    4.09123453918224    3.36777051794066
H         4.36007183389380    3.16210851475817    3.31213689654359
C        -0.87421824050959    4.67470813032190    4.36260782120683
H        -1.00410979113439    4.26193343069601    3.37067903559139
C        -1.41407883118150    4.04152510862913    5.46974524532024
H        -1.95731188550152    3.11627943395468    5.35648273348875
C        -1.23045488815113    4.61529320354688    6.71736344853513
H        -1.62084054531080    4.14114191839399    7.60613817942928
C        -0.54704674033331    5.81838466399059    6.79618649787111
H        -0.40202530742718    6.31752118616831    7.74174326631309
C        -0.04281870631571    6.37196060217129    5.63131398414078
H         0.49065952844640    7.31424666984661    5.65549835247250

