62
CSD_code = RAJNIC | q = 0 | S = 0 | Stoichiometry = C18H29B10ClFIrN2 | MND = 8
Ir        1.33970490648418    2.93943340453065   10.43663582965121
Cl        3.38668252527214    4.10222166667665   10.37392903903645
N         1.69217721253245    2.12725275685026   13.19841440209278
N         1.27540737856621    2.98968821525065   12.34724435797035
F        -1.58228284272543    7.19472599934488   14.44520675443933
C         2.26661047446534    0.99716771569606   12.63147346967652
C         3.62619813512454    1.16639131052168   11.79951551764011
H         4.08027797964521    2.14633001540601   11.84777137432320
B         3.67480918946473    0.28012607895174   13.27537450344097
H         4.16335242611120    0.80905085233148   14.19895987630311
B         2.13117972729654   -0.56028556726064   13.29250936280739
H         1.55241156224119   -0.67771844078528   14.30535651283267
B         1.21845041845381   -0.09256605861304   11.82855896218186
H         0.06511938097740    0.08424194512905   11.95740347157068
B         2.18018338057915    1.06174137341853   10.87512180551561
B         3.64972305922074    0.25004562595218   10.37119288007022
H         4.24844944225052    0.65464801894846    9.44884547304361
B         4.56516266142810   -0.22796631368629   11.82821570226026
H         5.73289059929776   -0.11147189490813   11.83053162009411
B         3.60557209582591   -1.40092783139141   12.75957781910146
H         4.10306748309709   -2.25820821672676   13.38924745875470
B         2.07030318417909   -1.63318617240151   11.87634470662486
H         1.47717868379425   -2.64708471867761   11.90759843204786
B         2.10291488030157   -0.62569053477765   10.38423974390053
H         1.55245807673693   -0.98077183338059    9.41068850081926
B         3.59013150442674   -1.43074834595533   10.96280680883490
H         4.08223360580133   -2.31333602460410   10.36368304007720
C         0.56775114366084    4.07078464140521   12.90118397512508
C         0.77311310833717    5.36182449997560   12.41799214665554
H         1.51863062992471    5.53388327781270   11.65825462711848
C         0.05511629556218    6.41772893073895   12.94279959851707
H         0.20395711551799    7.42589105789813   12.58958278759242
C        -0.86631806848867    6.16830747107074   13.94564239516243
C        -1.07181016266409    4.89670545245751   14.45406054684702
H        -1.79151026734349    4.74457831895784   15.24236671757980
C        -0.34259143100200    3.84642939906515   13.93445789722595
H        -0.46918221889182    2.84227350881514   14.30825986214954
C         0.80969833569436    3.83663468033021    8.34265649914908
C         0.44167028841693    2.47650336016955    8.44820558922211
C        -0.57715711960439    2.40079926874853    9.46836702434600
C        -0.94006220222899    3.76438476012257    9.82421259470529
C        -0.08442047892173    4.62891994050538    9.15683109676274
C         1.75993585350275    4.42331469491212    7.35071138075778
H         1.20361713809061    4.95514526254793    6.57689952415875
H         2.35872712100372    3.64846979177255    6.87965826697033
H         2.43349644835739    5.13538280299543    7.82587460785286
C         0.83629498212290    1.38694727242414    7.49596534526903
H         0.53509191619039    0.41574749393030    7.87289764678417
H         1.91098971291390    1.36861166684111    7.33072375899315
H         0.34454327972148    1.55221112936838    6.53574013354256
C        -1.47821647116960    1.22593146875220    9.69279157538806
H        -2.27344880652748    1.22846456820487    8.94486775051957
H        -1.94299574776252    1.26952020690055   10.67499692925639
H        -0.93244662039983    0.29004680542701    9.61129947193606
C        -2.08581885465073    4.11745882707746   10.71379041606264
H        -2.00612649897085    5.13948069219114   11.07712470050321
H        -2.13714259956195    3.45275799247032   11.57502110154349
H        -3.02394075053859    4.02360369250063   10.16395776200066
C        -0.08151001930639    6.12062916102608    9.16936765425142
H        -0.49263042145854    6.50371419576913    8.23331839752919
H         0.93379674173251    6.50466160630990    9.26261653836485
H        -0.67966850211651    6.51164907466286    9.98915625504601

