23
CSD_code = RAJNAS | q = 1 | S = 0 | Stoichiometry = C10H8AuCl2N2(1+) | MND = 4
Au        3.09103218526108    4.59080085211747    3.24175306806611
N         2.54333503055853    6.17600199376286    2.03218693238310
Cl        2.44739031977021    2.99450061389576    1.82511399375967
C         2.78949752665034    7.38532257563839    2.57369915010651
C         2.47471881036279    8.53887363524452    1.86084289959503
H         2.66735484813322    9.51180430908402    2.28124039593461
C         1.90907481875756    8.43206130336757    0.59846111975135
H         1.66254342432929    9.32165218276905    0.03931132539118
C         1.66702539243311    7.17357169299454    0.06975396298586
H         1.22881671337932    7.04549105148924   -0.90665125391042
C         2.00279171970212    6.06304553089636    0.82734102672262
H         1.84123785003417    5.05339727181406    0.47390434337695
C         3.38833657232130    7.38532661369998    3.91161310005170
N         3.63444427280577    6.17601058961271    4.45315570223564
Cl        3.72933095866465    2.99446818132999    4.66052918639057
C         4.17506136335269    6.06305627605793    5.65796349773230
C         4.51093071646185    7.17358184662175    6.41550408873056
C         4.26887331466503    8.43206957242625    5.88679743834728
C         3.70317852575589    8.53887875721419    4.62443777628762
H         3.51054721509053    9.51180753868431    4.20403568421693
H         4.51546564591006    9.32166148493173    6.44591865796109
H         4.94924855046219    7.04550235595752    7.39186169265097
H         4.33676422513837    5.05341377038953    6.01132621123280

