62
CSD_code = RAJPOJ | q = 0 | S = 0 | Stoichiometry = C31H13AuF15PSe | MND = 4
Au        1.51872774103227   12.26367796326086   10.49492120217327
C         2.97836155858019   12.09970188987745    9.10054036109152
C         4.33041188132420   12.10460442394913    9.40937254198483
C         5.33326551032976   12.00544286804305    8.45233434770758
C         4.98633635341881   11.88736963295233    7.11207750817180
C         3.64136310495782   11.87306016810789    6.75911223692659
C         2.67247035668386   11.97781610660573    7.75166118972896
F         4.70921721366327   12.22417609785364   10.69774701819646
F         6.61986033288343   12.02611038579621    8.81761344347682
F         5.93199443666795   11.78899944057323    6.17609913940625
F         3.28896576902988   11.75523194039732    5.47624464029282
F         1.38297664053066   11.95414001224480    7.37637251505778
C         0.78633168954813   10.51506203505274    9.85494492952712
C         1.54347265639572    9.36138371117067    9.95669509261963
C         1.07877584578208    8.12516387352384    9.52135507836720
C        -0.19263034303247    8.03580040547076    8.96386948602599
C        -0.97879843834927    9.17874190558743    8.85812449831002
C        -0.47891223348537   10.39825070463717    9.30631734242107
F         2.77018506232799    9.43631390063531   10.50019535138657
F         1.84055650191832    7.03473371235438    9.63480522726676
F        -0.65713731836355    6.86023653410015    8.54034281789271
F        -2.20521957529874    9.09901769895544    8.33948104378913
F        -1.25794662582626   11.48269452410590    9.21658939875821
C        -0.03399984956879   12.37023697358396   11.79052025869257
C        -0.90281228569169   13.45333285424816   11.73311555426274
C        -1.99824219016792   13.58704719661125   12.57852527221117
C        -2.26260623355110   12.59566036954017   13.51584570981102
C        -1.42782695231653   11.48840700123171   13.59098477692027
C        -0.34267517629447   11.39794439189236   12.72825285596150
F        -0.65568425127343   14.43430851909321   10.85607920710186
F        -2.77914427936741   14.66919767236896   12.51863201973454
F        -3.29104652772084   12.72069679952691   14.35903244379531
F        -1.65105962828811   10.53867608459871   14.50713719463350
F         0.46786374267194   10.32388907202833   12.84551488649525
Se        2.50568346077839   14.37428416488675   11.42539763588898
P         2.82012169175822   13.64479329694598   13.44899504178472
C         3.42757071764839   11.93054329674611   13.58114555129441
H         3.67850378413502   11.72354373999732   14.62100670649739
H         4.32650486487400   11.84806476015667   12.97128847451504
H         2.68374428756108   11.22141396006201   13.22050871548275
C         4.12157443950154   14.67056624948657   14.18342799701699
C         5.26994116447879   14.90947720785747   13.43642303072689
H         5.34341763592244   14.51746907178530   12.43126725386614
C         6.29654186355182   15.65543598849113   13.98401370533214
H         7.18856136063443   15.84636626539099   13.40776264249975
C         6.17597056418946   16.16051824389121   15.26968584063694
H         6.97637222249747   16.74715025595325   15.69415880533772
C         5.03049705135810   15.91991749504333   16.01140458299086
H         4.93891915727825   16.31645845621599   17.01119537936881
C         3.99745134660062   15.17277000865808   15.47303116026714
H         3.09999176771086   14.98464728701396   16.04595279005254
C         1.33623205134961   13.83967706112388   14.47801493484879
C         0.92003511086615   12.87388099507868   15.38678931742847
H         1.46342600809952   11.94712380246597   15.49444030527084
C        -0.20595557698286   13.10899727801781   16.15816168422043
H        -0.53546017936641   12.35989054962708   16.86198387161333
C        -0.91258335187001   14.29332706609707   16.02210078747462
H        -1.79395834001119   14.46431571427623   16.62070755654830
C        -0.49739807909997   15.25409171573026   15.11160707354193
H        -1.05210768026784   16.17306042615473   15.00113881971927
C         0.62598297809017   15.02882235659741   14.33875777725122
H         0.96252518954769   15.76266641609855   13.61657596835077

