89
CSD_code = RAJQUO | q = 0 | S = 0 | Stoichiometry = C42H38CuN5P2S | MND = 4
Cu        2.24947127351762   14.07124023614517    1.97715221290367
S         0.16929921458117   15.61859130610804    2.07232322911503
C         0.76481385591745   17.10822967354102    1.63858534542695
C         0.58746824830509   19.38957667248746    1.62647830869710
C         1.76764218827522   19.51665020767430    0.86136649583766
H         2.13618140061390   20.48505368919368    0.56866363862687
C         2.43492893577570   18.36598936701692    0.51950600069617
C        -0.17164646666842   20.59904415228208    2.05686483056806
H         0.46756081466074   21.24450964626311    2.65673590987264
H        -0.49888009096621   21.16411535627360    1.18560561334796
H        -1.03605260067250   20.29732401368868    2.63992323041804
C         3.69970853531222   18.33499524076837   -0.26424772781226
H         3.55859819541181   17.75343217903675   -1.17459954186399
H         4.48819566146480   17.84949620204668    0.31003907213358
H         4.01701302531885   19.33969665877910   -0.52693826697587
N         0.11671925978445   18.22495761411616    1.98911720154953
N         1.92062941506291   17.18808843021850    0.90506676323954
H         2.45514832774638   16.27796351850773    0.71476696078456
N         3.37079550376599   14.96096962709510    0.66063213690986
N         4.52803833122463   15.15250279021841    0.73946835436911
N         5.63766817844028   15.38928248066052    0.74836670605619
P         1.55557550905742   11.93535321065763    2.09742175386970
C         2.92902230829076   10.82352530638375    1.65822422382018
C         3.81160518348056   11.29832956247519    0.69113852301635
H         3.64330699660759   12.28110011440223    0.26735999336041
C         4.88997311300462   10.53087782373517    0.29318871917150
H         5.57426996685225   10.90739387232402   -0.45246108604820
C         5.09453947341059    9.28374049611095    0.86181249762330
H         5.93950598888876    8.68335257632554    0.55804972477775
C         4.21795584409813    8.80618152158872    1.82303202203809
H         4.37812474708545    7.83269559793109    2.26391902689232
C         3.13606535505926    9.56978101040408    2.22392715693514
H         2.45618076723094    9.19631284980668    2.97745971092432
C         0.22089215396913   11.36691176461410    0.99688154114677
C        -0.78264308205622   12.28644906549766    0.70286521313991
H        -0.72540894288311   13.28367394196646    1.11911517650544
C        -1.83472242265465   11.92208653232387   -0.11726030313409
H        -2.61378205903186   12.63571600856198   -0.34122941273654
C        -1.88305141893581   10.64610350112634   -0.65509361245504
H        -2.70190734690136   10.36175181244214   -1.29976951373310
C        -0.87804792248433    9.73430987358209   -0.37328757651047
H        -0.91479381248269    8.74152195265121   -0.79832580470071
C         0.17472436232244   10.08883103951491    0.45057841024500
H         0.95943017996330    9.37732253414067    0.66644784128947
C         1.02586062468976   11.30865648654535    3.72142086729377
C        -0.30555385579292   11.03103730166270    4.01000915477424
H        -1.05344419765273   11.11823823598304    3.23456652038706
C        -0.66767415775509   10.64114049741911    5.28679602267141
H        -1.70251249667974   10.42084714952940    5.50550968941314
C         0.28875289775496   10.53074869627378    6.28189412775370
H         0.00244641839408   10.22083697987352    7.27597728002169
C         1.61398148571913   10.82540970524167    6.00374424970849
H         2.36077791624168   10.75035624844188    6.78058250280150
C         1.98048422492467   11.22610727385253    4.73433152883890
H         3.01332449461879   11.47001716274482    4.51845053854213
P         2.88835896209898   14.80362246950032    4.06564239747450
C         4.61952036765996   14.34876442947902    4.39635788045685
C         5.45058075981359   15.04742682231306    5.26778210138026
H         5.07324609822887   15.91535574249816    5.79238211735661
C         6.75905257256013   14.63818917321769    5.44498950976547
H         7.40391341369148   15.18235172769838    6.12012640929384
C         7.24821659210392   13.53896658732236    4.75598406420434
H         8.27358591157325   13.22968853649267    4.89532397251315
C         6.42884379446936   12.84673007666858    3.88028855205989
H         6.80903028271879   11.99857817956944    3.32997578236384
C         5.12013392745633   13.25371850895889    3.70028143139306
H         4.47579488689964   12.73425161999331    2.99947933403011
C         2.94544477491844   16.61587708835287    4.18401472919096
C         3.95937517654620   17.28620581977387    3.49930790107304
H         4.74245272639110   16.71963577294663    3.01164684245577
C         3.96789076052960   18.66669858667645    3.45137104138842
H         4.76169941809497   19.18109593172174    2.92873220179444
C         2.95751369285113   19.38973122471185    4.06586724529796
H         2.96636611096407   20.46941888202318    4.02462902827749
C         1.93581131393744   18.72727661401962    4.72551333309648
H         1.13943900839573   19.28760988619189    5.19267795402651
C         1.92368006205007   17.34571995363889    4.78297954986895
H         1.11883927629037   16.83113541464589    5.28802641766484
C         2.00576204801783   14.33711195890332    5.59065857869384
C         0.61882414422119   14.25130345745578    5.48707161739728
H         0.14412562945659   14.46470242832076    4.53744848410040
C        -0.13824006845445   13.89427297942853    6.58592917522758
H        -1.21334601457846   13.83463098899411    6.50233287500465
C         0.48446528578418   13.60600771926034    7.78951082354879
H        -0.10529652162780   13.32474098090319    8.64976966300889
C         1.86441426192292   13.66908910720802    7.88856411039700
H         2.34976892696203   13.43548296781894    8.82565807801048
C         2.62895209528962   14.03014188923214    6.79363361065200
H         3.70612081929761   14.06783970879522    6.87439000596480

