80
CSD_code = RAJSOL | q = 0 | S = 0 | Stoichiometry = C31H46N2Zn | MND = 3
Zn       18.47366295433908    1.64308123063373    1.42124895200164
N        16.89536672564391    2.62876044905402    0.64109108215473
N        19.04454450855930    3.25203313763396    2.48117941452231
C        16.57503379187194    3.88072722577514    0.90086275844395
C        17.28425938876923    4.70239268622257    1.77403624458976
H        16.89157554267218    5.70118648844884    1.89396390665030
C        18.42861468112428    4.41489022631513    2.51477079180326
C        15.36264847856039    4.47128741185537    0.22533351376718
H        15.41057625740949    4.29994273013765   -0.84867234506094
H        15.28638284352508    5.53821767741904    0.41371426950429
H        14.46001077259036    3.98453022617494    0.59266999335450
C        18.98166048117244    5.50140475911283    3.40285097371898
H        18.98022378666872    5.16631941847613    4.43925345627719
H        18.39496335496468    6.41214826185530    3.32563559414813
H        20.01401108111075    5.72008046647196    3.13367661268265
C        16.10074842307590    1.86372366981430   -0.24045165978934
C        16.45112541381297    1.77977698374508   -1.59453186923150
C        15.71700418938400    0.94668836124364   -2.42569702669981
H        15.98114651474264    0.86526610459068   -3.46945514429605
C        14.65243007102693    0.21417771981172   -1.93745534430918
H        14.09209118070852   -0.43258328454236   -2.59656713450153
C        14.30817002880436    0.30875280075519   -0.60256212073146
H        13.47832769065459   -0.27143309440635   -0.22850672715114
C        15.01389590715343    1.13371403261011    0.26010548695923
C        17.62534444135328    2.56025498743372   -2.14218403790074
H        17.99639715333919    3.22793605200371   -1.35686565771900
C        17.22367225460667    3.41945444287451   -3.34282682640053
H        16.38939421759979    4.07099546502723   -3.09043089447706
H        16.92906654264176    2.80089286597290   -4.18679963444560
H        18.06145651309739    4.04053889136606   -3.65310597282401
C        18.76008059628828    1.60574330181321   -2.52122999225756
H        19.61976315468446    2.16532120153929   -2.88411177325757
H        18.44093380666424    0.91748875398780   -3.30048657701879
H        19.06616296441652    1.02428707451171   -1.65271367847264
C        14.64502840267901    1.20415410041925    1.72539014264167
H        15.17287871222309    2.05010932210828    2.17757949476601
C        15.11284302149127   -0.06889806922723    2.43512316734913
H        14.86521677344475   -0.02607090237115    3.49378128123039
H        16.19280405641196   -0.17523879090689    2.33445816260214
H        14.63815941455794   -0.94616780379863    2.00114507444680
C        13.14457007340726    1.41602477267050    1.93555007527321
H        12.94179942178211    1.61843627195436    2.98531298312311
H        12.57791898707635    0.53425497957816    1.64770399287620
H        12.78646278857771    2.25866180862268    1.34717370926608
C        20.21943523028045    3.03075410848503    3.22853784674071
C        21.46640317915435    3.29832457189817    2.64589907412792
C        22.61405761660357    2.92212792384091    3.32648790233341
H        23.58231180844619    3.09705735662499    2.88309173438530
C        22.53874230614409    2.31921233811730    4.56809009608132
H        23.44220415099056    2.02538934004805    5.08196276533657
C        21.30692482660749    2.09994744325392    5.15366736788175
H        21.25868140623401    1.63919219720519    6.12900419715345
C        20.13464421517116    2.45545098805596    4.50278349876603
C        21.55027168423357    3.95861890063710    1.28655387991394
H        20.59015988690233    4.44104137848979    1.07664595919987
C        22.63671251916062    5.03435860687630    1.23140040097282
H        22.54399630908682    5.60726103417810    0.31088665857207
H        23.63030071539550    4.59420447349589    1.25312471019202
H        22.54558196158230    5.71820363038046    2.07308460416792
C        21.78251084969499    2.90575086824218    0.20025970196277
H        21.87302708486488    3.38179206928717   -0.77416189618317
H        20.94154242395973    2.21045236238229    0.16778415420690
H        22.69316596725945    2.34449864878329    0.39951710657871
C        18.79168871330543    2.20645159475238    5.15316666649567
H        18.01683456976394    2.68412968084946    4.54388278447617
C        18.72887695007657    2.81011324646493    6.55826354302796
H        17.71597584927790    2.73887993472477    6.94948854789148
H        19.01826054949793    3.85918701096334    6.54224101226940
H        19.39271617332929    2.28532638807425    7.24053604895831
C        18.48735576343259    0.70746675587997    5.20123314123367
H        17.52518338182232    0.53351635291917    5.67886689186320
H        19.25319503062533    0.17612145726256    5.76197155912428
H        18.45053598196042    0.29970685619274    4.19219887423129
C        19.21855907413732   -0.24007050963299    1.31456825574524
H        18.53738610052600   -0.93925143867516    1.80417392735963
H        19.26975874312001   -0.57860016469722    0.27802433197253
C        20.60360406181941   -0.42877008309059    1.93902779524566
H        20.90316279105240   -1.47740203798904    1.87971368862161
H        20.61472625817874   -0.13469877591737    2.98595831940396
H        21.35607850160900    0.16199107685422    1.42280813207891

