91
CSD_code = RAJTEB | q = 0 | S = 0 | Stoichiometry = C31H52ClN6Ta | MND = 7
Ta        1.93133145131110    2.19971217130361    3.87623448442744
Cl       -0.17167221173664    2.43277289128907    2.91160966968626
N         1.58684520702972    2.99259695680717    5.44524348735952
C         1.30618985347787    3.66140671964598    6.64812348165107
C         1.62553097364632    5.15998899371654    6.47658790124433
H         2.66001945422160    5.27426306297805    6.16262029595070
H         1.46764182085387    5.69618379939324    7.40883234751507
H         0.98372286140501    5.57732039644725    5.70532398459931
C         2.16929590121917    3.06903520483764    7.77951529610015
H         1.91150648340716    3.52205108371723    8.73329584262145
H         3.22056665723891    3.24660321328667    7.57015496160906
H         2.00295315938162    1.99600554943246    7.83170625494118
C        -0.18623155947901    3.48815038253509    6.99284464826567
H        -0.78853528332218    3.81110866178422    6.14772398006955
H        -0.44719551079804    4.07583713523620    7.86917093093988
H        -0.39628154758072    2.43983276016671    7.18565968744124
N         2.54750377261190    1.06006077023836    1.61712113258162
C         1.60080431347257    0.44298669562076    0.92366329146606
H         0.59076801931069    0.57445567205011    1.28775636395799
C         1.86985397743632   -0.30999802895403   -0.20824223627763
H         1.06614842340223   -0.79528824571142   -0.73911247641988
C         3.18303742647440   -0.42182994519245   -0.63543705530234
H         3.43235413718332   -1.00365012328518   -1.51071679526434
C         4.17128018974191    0.23514641569826    0.08149214593361
H         5.20671783051672    0.18373257041670   -0.21720214705394
C         3.80236990368336    0.96343757378510    1.19969088243748
H         4.53688806811389    1.50234375358802    1.78373802052734
N         1.44961983745852    0.23445643170775    4.34089678126293
N         2.77075068946348    0.32799949289250    4.50198889714670
C         1.02490245545534   -0.95488696576611    4.77861801256901
C         2.13670506127726   -1.66257756925583    5.23414012920564
H         2.15387479269365   -2.65031196213736    5.64584611540231
C         3.22246016834799   -0.80643593320468    5.05218758404557
C        -0.43393427943446   -1.32025383421295    4.76985731331531
C        -1.17340321852758   -0.33518815732744    5.68482380748700
H        -2.24074358628492   -0.54498273151162    5.68014195086993
H        -1.01119230264364    0.68406631949043    5.33909053535972
H        -0.80588604866805   -0.41807819656624    6.70586044794838
C        -0.98148409021363   -1.18973358685362    3.34349125279580
H        -0.92528621383564   -0.15356407809713    3.01913909719977
H        -2.02268799608980   -1.50372383796059    3.31245887684707
H        -0.41144194838869   -1.81257795186479    2.65524245196475
C        -0.63269720718503   -2.75111436340941    5.27292175465618
H        -0.10955013950845   -3.46006119577033    4.63457385245227
H        -1.69135212095358   -3.00143846935768    5.26855387583989
H        -0.26076635175524   -2.85653237691494    6.28931259101172
C         4.67808039968095   -1.01688690143874    5.36487516318407
C         5.16858466806855    0.17479055616054    6.19467803633916
H         6.24722125113912    0.13041919241970    6.33016021113920
H         4.69384353878695    0.16883734146636    7.17323656971577
H         4.90474248840057    1.10615344683654    5.70036339270992
C         5.45398910570619   -1.09966542194699    4.04337929632840
H         6.52109833686332   -1.19654926304128    4.23297541433778
H         5.28313553877563   -0.20673950745658    3.44761211095967
H         5.12500613726658   -1.96178407921467    3.46535657761239
C         4.88583382072001   -2.31120947092198    6.15346624588525
H         5.93800946620952   -2.42424018832623    6.40655837153119
H         4.58023503022516   -3.17537672833137    5.56820515676892
H         4.30998920181457   -2.29379807625695    7.07554258129783
N         2.59489306277042    3.80854926535929    2.73734043544153
N         3.66845953144482    3.35010418754255    3.38280053722243
C         2.87743229087919    4.98529746769750    2.17101923863229
C         4.20345007075382    5.29530700840239    2.47003331044093
H         4.75008522430291    6.16484243007255    2.16920926527782
C         4.66312047365007    4.23909583241525    3.25692924360382
C         1.83861551930712    5.74455364732263    1.39372765021760
C         0.73626164214866    6.17788579310355    2.36911517418212
H         0.30685932366441    5.30520155711939    2.85714247094688
H        -0.05143133244416    6.70632173814757    1.83650852788581
H         1.14461257103566    6.83652301192408    3.13319568948443
C         1.23959748512764    4.81742594580209    0.32858903264720
H         0.49643690262969    5.35174509537396   -0.25941207054643
H         0.75778192194732    3.96514226237558    0.80245053022696
H         2.01650878362102    4.45382914868301   -0.34295082333201
C         2.45585631260148    6.97430817982847    0.72564209888446
H         2.86055066293878    7.65410047783663    1.47166680402177
H         1.69758894211704    7.50558521244989    0.15448096343212
H         3.25586424654681    6.68370348655651    0.04786715251100
C         5.98637881636681    4.05968846145207    3.94959696577407
C         6.59428682781501    2.71078736097252    3.55108301128566
H         7.53693293586257    2.55166670313283    4.07067811703731
H         6.78493896688548    2.68089742069394    2.47900460799728
H         5.91451639081348    1.90560931978462    3.81449865631558
C         5.72319632685271    4.08383856294693    5.46154655287415
H         5.39807000268958    5.07574026448926    5.76827836354057
H         6.62642698929235    3.82907002373222    6.01196510009882
H         4.93598918603478    3.37551455938836    5.71287009981569
C         6.95550634332678    5.18275241801076    3.57609302770050
H         7.90383663541229    5.03796961508998    4.08949317937570
H         6.55382384046143    6.15014350250224    3.86660657472345
H         7.14238284606430    5.19102201513641    2.50447767608959

