81
CSD_code = RAJVEE | q = 0 | S = 0 | Stoichiometry = C34H36BCdN7O2 | MND = 6
Cd        4.44638119281962    2.62339720269997   15.33815805867214
O         4.06078044673787    2.12926663536987   17.47342746368839
O         6.05073899565471    1.78185641477974   16.63026384401983
N         2.04713962605336    1.34313431784861   14.04421526572504
N         3.07113924229842    0.94760821040682   14.80479456172830
N         2.06484203314820    3.83687559963003   13.86348389788672
N         2.82254789043146    4.10736647774598   14.92871705127583
N         3.52926338156772    2.47326078201555   12.37876474558546
N         4.69071837083081    2.48042614234653   13.03639778905123
N         6.10158173736421    4.40697363482018   15.12629106279122
H         6.74228993815981    3.76791984839909   14.65116606983482
B         2.15732111952003    2.51883265632019   13.07296702681673
H         1.29221264146506    2.47535304066677   12.26360875474197
C         5.24304611416223    1.74513579363529   17.58698415688760
C         5.72631577235311    1.24896797564572   18.93996255447950
H         6.67583178692921    0.73428736183406   18.83193431676700
H         4.98259133593462    0.58367559644789   19.36857885890620
H         5.84887015674054    2.10461031196604   19.60102142863826
C         2.66578120408233   -0.10218255159069   15.51959886769976
C         1.32687499205077   -0.38648481843883   15.20731200610496
H         0.71785281049264   -1.17619441836030   15.59741303283766
C         0.98412184460839    0.55418411301715   14.26244643436227
H         0.06117935178938    0.70400200820712   13.73842882493394
C         3.11040825247774   -1.39537701493652   17.58962351528887
H         2.07387432760418   -1.27837415313284   17.86940392719046
C         3.97905072857931   -2.08868737814836   18.41184306567067
H         3.61596760144520   -2.52489436803196   19.33166270857567
C         5.31225816308001   -2.22444282665104   18.06138789974057
H         5.98851887065619   -2.76566709040357   18.70728199585639
C         5.77499880828160   -1.66610468964631   16.88100240884917
H         6.81343585565059   -1.77347375169687   16.60339449088477
C         4.91144969809133   -0.97166867828618   16.05564225769149
H         5.26213301759268   -0.55024917526791   15.12278905627300
C         3.57040516444172   -0.82437501483500   16.40612419219975
C         1.27447576672746    4.88318616480125   13.58400425621289
H         0.58430740299658    4.85747904196570   12.76493836147497
C         1.53441563346612    5.88017372427960   14.49563649335049
H         1.06578516702615    6.84013041835226   14.56866099250159
C         2.52280540866306    5.34238502380392   15.33549252413681
C         3.50911117704718    5.27173045071853   17.61522485158382
H         3.29616166185872    4.21402613605877   17.66460742417640
C         4.10979411218879    5.91316883288582   18.68443965713165
H         4.37590944773421    5.34627348130615   19.56448464195972
C         4.36713577920946    7.27371300081462   18.63456969852735
H         4.83780146265172    7.76986062433379   19.47081574800150
C         4.01369852298099    7.99870657882505   17.50792037848378
H         4.20943734655373    9.06059940507535   17.46442592775689
C         3.41024122009099    7.36585966700004   16.43741438230030
H         3.14207246279733    7.93307932031931   15.55726179047835
C         3.15845568202241    5.99404565489128   16.47637688717657
C         3.75090800345448    2.47164113927400   11.05558181301817
H         2.94099878032456    2.46067108865642   10.35455397713091
C         5.10973866884699    2.48781590664293   10.84015940533215
H         5.62474769180250    2.47342502409292    9.90162579159848
C         5.66941127778827    2.48763978235631   12.12808539813653
C         7.53899205977282    1.86576771286996   13.63865458578327
H         6.84100679919010    1.32250388109353   14.26127300864239
C         8.87841676214194    1.91691256421401   13.98196953873220
H         9.21490995110348    1.42140269492870   14.88024706309123
C         9.78061922691114    2.59966222515874   13.18182125768435
H        10.82553976403085    2.64010488612944   13.45234766906467
C         9.33818179110632    3.22773558298166   12.02854522047935
H        10.03841791607125    3.75920684797104   11.40031143413473
C         8.00046211669241    3.18281949735224   11.68080848733150
H         7.65731834351758    3.68731716125488   10.78942530954401
C         7.08346650235476    2.50743507811236   12.48573412197991
C         5.85282810691907    5.52336499231031   14.21657576475157
H         5.32561081066644    5.14707208957502   13.33577915255014
H         5.20401099312222    6.23957453496920   14.72876036272124
C         7.14898765953833    6.21901908829028   13.79501651240644
H         7.77579454680852    5.51257917421700   13.24382363194153
H         6.92078005479567    7.05617474801173   13.13304867063217
C         7.89701520320495    6.70799417300919   15.03228371070367
H         7.29857522944526    7.46758948364885   15.54117085852501
H         8.84703789708863    7.16323685364912   14.74487316908778
C         8.13468006402236    5.53528397567160   15.97951983351984
H         8.78947859367160    4.80372807999126   15.49771797535044
H         8.62403877061623    5.87800330315435   16.89241885488477
C         6.80169684590541    4.86840035308451   16.32529237013339
H         6.96955902821208    4.00391239450609   16.97115227250260
H         6.15623981377060    5.57882996298297   16.84985717168100

