55
CSD_code = RAJWAA | q = 0 | S = 0 | Stoichiometry = C26H23FeO4P | MND = 7
Fe        3.60502469953761   -3.54419053031184    6.93452471395504
P         5.74758529410689   -3.30808134972404    6.45586656242149
O         3.96966607646632    0.32075134615942    5.68029099387816
O         2.06191606292877   -0.73086410120632    5.16397738508464
O         3.21139232489920   -6.40588750256028    6.95343510135039
O         2.28696301481542   -4.12503501657588    4.42079609262845
C         6.66321292771489   -4.87266265482255    6.19902235050068
C         6.46218522465423   -5.87333342211289    7.14883982112680
C         7.10460907258308   -7.09080920711140    7.03475865014900
C         7.94341168246742   -7.33087978529350    5.95760187166268
C         8.13014770545565   -6.35057914862228    4.99880506383714
C         7.49530926729467   -5.12518362944146    5.11514860984358
C         6.80240805112597   -2.46357436553721    7.69260668892421
C         7.55780050246771   -3.14837144311503    8.63722193796635
C         8.25412389392507   -2.45129308398713    9.60964231263742
C         8.19646300450186   -1.06880654353901    9.65475393696804
C         7.44534657252865   -0.37969423770434    8.71553231713598
C         6.74987454730237   -1.07044960118670    7.74141084130809
C         6.22682159008923   -2.34573332080473    4.97638850161311
C         7.53490587797980   -1.89514744513000    4.80265803642708
C         7.87545071562097   -1.17112904899491    3.67581154390020
C         6.91888877054395   -0.88866511830344    2.71285604756965
C         5.61954890400650   -1.33692461675943    2.87805582833642
C         5.27591497672104   -2.06349174528346    4.00499650466758
C         3.01091985707184   -0.61605585530998    5.90581583020612
C         3.29549192165119   -1.41878170300756    7.08955755014265
C         2.22374516936527   -2.16964828706230    7.66669772186151
C         2.53116361269337   -3.06407011981459    8.70636000397123
C         3.88616206547414   -3.23635136447273    9.07594563280451
C         4.22990626203297   -4.30683409501781   10.08034819651871
C         3.40900009250479   -5.27351772693918    6.98871488163127
C         2.83351320648475   -3.80948393198060    5.37802136440024
H         3.75267585739534    0.81051909919162    4.87340358161968
H         5.78289826284677   -5.68724969861224    7.97008237483018
H         6.94472334865080   -7.85744866500356    7.77865246504799
H         8.44119708502007   -8.28431083715402    5.86131274249318
H         8.77169053483443   -6.53998851386195    4.15054242135625
H         7.64330501990026   -4.37319353531531    4.35406547716751
H         7.61501332245887   -4.22681173687034    8.60508544206854
H         8.84383109732140   -2.99145837579036   10.33614556453417
H         8.73763960326799   -0.52874650761624   10.41742973214119
H         7.40056552720358    0.69930628747403    8.74357064178802
H         6.17270084866512   -0.53081816747257    7.00237303105084
H         8.28228337008947   -2.11099234527093    5.55439892664355
H         8.89049056491870   -0.82402694968853    3.54758055596019
H         7.18811011749959   -0.31842086065782    1.83600638386660
H         4.87020059327366   -1.11918803441313    2.13132792948798
H         4.26165322212735   -2.40783947374723    4.14549364011521
H         4.03104142310732   -0.95192924015550    7.73771588884917
H         1.21269492119298   -2.04880486923422    7.29500331845130
H         1.75501761987754   -3.69466934067739    9.12823292487920
H         4.49286645673273   -2.34433782142488    9.21848952259321
H         5.30023849599865   -4.50196416958144   10.07893357835664
H         3.70276802160196   -5.23317374851455    9.86301049079040
H         3.95592173900241   -3.98387384003089   11.08698047047370

