97
CSD_code = RAJXOR | q = 0 | S = 0 | Stoichiometry = C45H42BN6OPRu | MND = 6
C        11.31149943771661    3.99524409531600    7.60128294315783
H        11.93263440665480    4.10027044034830    6.73162879138709
C        10.37029385137175    3.00379974874670    7.88205332872954
H        10.09330950747023    2.17789511398758    7.26006106734413
C         9.88428999269503    3.32726018587193    9.12980287949005
H         9.14859788145048    2.84344570954526    9.73986469881048
C         9.85359239665970    8.42390459093395    9.24093930430048
H        10.21313783369620    9.14784360960068    8.53445440762909
C         8.67788171055612    8.44704482453225    9.99225081296513
H         7.91802690986247    9.20122007736303    9.99364670596262
C         8.71761604532780    7.28403532766849   10.72961653017718
H         8.02231171286708    6.88384857499457   11.43947142059682
C        13.82225504235960    5.87951123479368   11.53376875883479
H        14.76741596311896    6.25399373658003   11.19159681630670
C        13.50881051459506    5.28140427501615   12.75486655686844
H        14.16874823459352    5.09746311760518   13.57720333802457
C        12.16819251879428    4.98000870834101   12.66248490728847
H        11.50856605979812    4.51055560863019   13.36370132279903
C        12.40942154387928    9.68378887232906   10.43089845515406
C        11.97737259036477    9.10621082625302   11.62396156493381
H        12.27099615281592    8.09144297459945   11.85657895182883
C        11.18000461933765    9.81310839812903   12.50242116001068
H        10.85011299614654    9.35111004593830   13.42179342724947
C        10.79659471385992   11.10978121031364   12.19816163353551
H        10.16477345362329   11.66165708574819   12.87836667146565
C        11.22373098543883   11.69275662255570   11.01822449930487
H        10.92768132396433   12.70361677453471   10.77723880762583
C        12.02513999816585   10.98642053271821   10.13708966372909
H        12.34523581990483   11.45228053163594    9.21623748971276
C        13.69635581729052    9.81591690280486    7.93525176942707
C        12.77456478894774    9.88832758748772    6.89455470187884
H        11.93027808402760    9.21349819552575    6.89245064905333
C        12.94163135573232   10.79829591581471    5.86653102694836
H        12.22151907349390   10.84256055678027    5.06192262667784
C        14.03047872704748   11.65418349436642    5.86881810474238
H        14.16474568407032   12.36420166547946    5.06589423115379
C        14.94470639186174   11.59918867296189    6.90779283240872
H        15.79041238235409   12.27168470752068    6.91893740677364
C        14.78025956784606   10.69005204781670    7.93775296942836
H        15.49569504299891   10.66405416610124    8.74684654000039
C        15.01726787624842    8.63176911804351   10.09842354823018
C        15.26568294099362    9.05617844632989   11.39734393354732
H        14.46789049521679    9.46913161468879   11.99758176605438
C        16.54208439866938    8.95300880964501   11.92571152038099
H        16.72963696567578    9.28475900658652   12.93681740228381
C        17.57437107531286    8.42839393627309   11.16737730676387
H        18.56601196632604    8.34621709556583   11.58748562482178
C        17.33408283347254    8.01122430726195    9.86688228515165
H        18.13893960121415    7.60556906212158    9.27192832511432
C        16.06297553364651    8.11203848602806    9.33827738566138
H        15.85055096027500    7.79533862360014    8.32585434731792
C        12.94247398952871    6.59542631120138    6.11128716960221
C        12.76291811527017    6.72649366563762    4.61004449237717
H        13.72986355643929    6.78720704810116    4.11162120401712
H        12.17967396744205    7.62406271410391    4.39683104059281
C        12.00831983015749    5.49684701142700    4.17624434530648
C        10.67058098667172    5.35128465532156    4.52201575894832
H        10.17642862554830    6.14138649790841    5.06905344997811
C         9.97958092899632    4.19985166277070    4.19514275901693
H         8.94054967968020    4.10324857279313    4.47705733443800
C        10.60603817595144    3.16322795124764    3.51614110667762
C         9.87191556296457    1.90245701464987    3.17156748806665
H        10.24672411950515    1.07317550992709    3.77205095604200
H        10.01973674727942    1.64627005751304    2.12364019176478
H         8.80627867429535    2.00841472025047    3.35934065414593
C        11.94444263660977    3.31166517028424    3.17296318271195
H        12.44887086473388    2.51445087700720    2.64503624867040
C        12.63936069589281    4.46054163225503    3.50228428777925
H        13.68164512211751    4.55299579977987    3.23114406076556
C        14.03592750828497    5.88905967097040    6.65655918078159
H        14.77682537226151    5.44054750197299    6.00279216099999
C        14.01219555082889    5.72038736457533    8.02162656096713
C        15.01726205260892    4.85220967637242    8.62270481079174
C        14.62989712259054    3.82632363857308    9.48990235687606
H        13.57764880679547    3.66251448870758    9.67815320027367
C        15.56424964043324    2.99764094531196   10.07388866865114
H        15.23796412741725    2.20668567919872   10.73546976321063
C        16.92355904577238    3.16742271818760    9.83304089390965
C        17.31320629663442    4.17174462741158    8.95776325438431
H        18.36412112972558    4.31056527924317    8.74152884038594
C        16.37931230422172    4.98790004381997    8.34960877002039
H        16.70937772094639    5.75081365532393    7.65942992322167
C        17.92953718724887    2.26434801706682   10.48096108494337
H        17.69998546015052    2.12759247453447   11.53632949262301
H        18.93423023908899    2.67024804720889   10.38933623787720
H        17.91331698762608    1.28216384061621   10.00696389277538
B        10.33131144439888    5.24060681039287   10.84486792281231
H         9.57613666560859    4.71766243192119   11.58903320846600
N        11.37408616011075    4.84778617632929    8.61411555161987
N        10.50794680699724    4.44150030369927    9.54495556377158
N        10.54193524072002    7.32948977575407    9.51911453294737
N         9.85127204663081    6.63419309872891   10.42201141879127
N        12.73677588172618    5.93382865237301   10.77164663031946
N        11.73026871754582    5.38424861279012   11.45816420809341
O        12.03519238243059    7.03436733339428    6.85671081439260
P        13.37578152116799    8.62219548650534    9.29116368702057
Ru       12.39818852038131    6.58603149967924    8.87228841964839

