93
CSD_code = RAJXIL | q = 0 | S = 0 | Stoichiometry = C43H39BN7OPRu | MND = 6
B         6.06954525879300    8.64580509534287   12.63524208579291
H         6.12829736714793    7.98241259356118   13.61203224661245
C         8.86509011048100    9.91588734916353   10.75339606306329
H         9.20749931924751   10.48349586301740    9.90793964288036
C         9.61236033209688    9.26318694333451   11.73574000257366
H        10.67841548425222    9.22351165936855   11.82531024629552
C         8.67415986454053    8.68302566315738   12.56092757693257
H         8.79268144198769    8.08620993869526   13.44235105692004
C         4.60068269918416   11.93003413454144   12.41593909098965
H         4.33182103042051   12.77354848399369   11.80886209699108
C         4.39582958398735   11.75068698486229   13.78417770020732
H         3.94509155285910   12.43499594466580   14.47322394987337
C         4.90252887493274   10.49654020008867   14.04481605014823
H         4.96138761099595    9.94392624078982   14.96047814582842
C         4.25756509804742    7.73250944251722    9.64307475906105
H         3.93932403143592    7.98008267230264    8.64831470877341
C         3.89543068722616    6.63166894585096   10.41892869406125
H         3.23912569606328    5.83061363842578   10.14830589070130
C         4.56784281499120    6.81053400876939   11.60724310265795
H         4.58706145562243    6.21141341585137   12.49462508743537
C         2.58629761162980   11.49238234305584    9.84715528793338
C         2.27474948916348   10.55831361741521   10.83228651946491
H         2.90783239357581    9.68953852192819   10.95303763538806
C         1.17073397750299   10.72904203821676   11.64531752663248
H         0.94386094468423    9.99826801061192   12.40811280049608
C         0.36009730425031   11.84108108858545   11.48395914014143
H        -0.49858613250385   11.98380932191288   12.12340956481147
C         0.65092801229209   12.76614262951999   10.49545562572825
H         0.01348467731822   13.62789518339338   10.35804546987160
C         1.75425228791710   12.59424564399073    9.67723684202401
H         1.96393992605156   13.31776327000421    8.90231738871332
C         3.32812835688793   10.17806719333904    7.49435235665045
C         4.18440364894376    9.63629946093702    6.53692146007512
H         5.24558839016246    9.81339331143213    6.63356815889206
C         3.68864723824776    8.88129740252650    5.49080792160644
H         4.36438192195901    8.46908988381578    4.75510897782520
C         2.32551939524301    8.65003727368003    5.39099937874943
H         1.93421221083028    8.05630962402055    4.57801389343014
C         1.46830891736424    9.17985122933862    6.33989040002069
H         0.40539057596386    8.99990525826279    6.26736802675412
C         1.96244963152198    9.94132091069573    7.38613861178324
H         1.27995627207562   10.34563897894989    8.11919565154255
C         4.30299218107402   12.76471207471926    7.98695850472244
C         4.46749940099743   13.90283118020444    8.77554284969169
H         4.40298215341189   13.81201354755480    9.85142179043578
C         4.69312751193528   15.13806344608514    8.20202521137753
H         4.81920894719708   16.01035255283538    8.82717476428055
C         4.76205620592475   15.25674603507777    6.82332388468611
H         4.93977994250266   16.22125631870062    6.37178871120212
C         4.60722565796820   14.13319237853838    6.03103670745619
H         4.66276352222558   14.21965951031651    4.95538932950533
C         4.38529648268345   12.89305173521155    6.60623806554748
H         4.26811332908362   12.02682015834816    5.97237412410681
C         7.40498319902231   12.46745320121693    8.66887643345510
C         7.91544987028850   13.81358668379985    8.36176145039759
C         8.46443777644784   14.60462037788425    9.36974167400174
H         8.56393169192414   14.20476849665949   10.37016663359205
C         8.91578929613764   15.88210875296487    9.09616277350616
H         9.34842752764648   16.47992304996529    9.88569479708475
C         8.81814278356581   16.39316091901675    7.81314599922407
H         9.17128346939477   17.39140866657683    7.59957213979959
C         8.26993541172487   15.61649110236253    6.80531113175266
H         8.19138459634695   16.01067340976543    5.80262854128679
C         7.82388518666295   14.33728305089512    7.07353221011442
H         7.39015649552748   13.73889233735180    6.28839381514006
C         7.56576813528643   11.36088914178027    7.79255169824327
C         8.45229000440539   11.42887305585661    6.61807736976089
C         9.74107271302562   11.94938390889493    6.72958510408634
H        10.09030998645302   12.30306346338681    7.69005590400528
C        10.57595058334030   12.01416099212526    5.63091846480116
H        11.57160067877998   12.42212866592348    5.73629396635535
C        10.14376174589728   11.55323321461725    4.39852449608928
H        10.79698587122306   11.60369797435215    3.53920249697557
C         8.87010286505918   11.02394951606520    4.27676653210350
H         8.52669182962700   10.66137778696853    3.31760223445523
C         8.03314987175068   10.96215187660828    5.37468739553083
H         7.03701708371732   10.55850191455398    5.26804942354511
C         6.99408271850772   10.17340798078195    8.24810234392273
C         7.06590143595278    7.80099803986036    7.97066546542394
H         7.78881623809239    7.13106281705867    7.50285667721227
H         6.05694225834289    7.51284877311616    7.66022042265151
H         7.14813154884650    7.72054080184105    9.05869962468003
N         7.57186865723191    9.73040208717889   10.98304808349414
N         7.45563012239273    8.98151780519677   12.08084771714142
N         5.18361217733522   10.85857872480099   11.90022014060925
N         5.36896328001184    9.98793293255336   12.89367938241163
N         5.09479401565846    8.51141296969374   10.32049909620001
N         5.27744253950114    7.94754109973025   11.52092235712545
N         6.77925091540842   12.22461769096658    9.78996272895214
H         6.66670650917693   13.03011694006958   10.40496772176105
O         7.38276144187060    9.09503093855176    7.52419683621612
P         4.08880761322506   11.15987495310809    8.84751346918380
Ru        5.93601715428448   10.39735353536253    9.97829446860964

