72
CSD_code = RAJXIJ | q = 0 | S = 0 | Stoichiometry = C28H42SiTi | MND = 12
Ti        3.50054759121257    3.33996254936704   11.53025679324087
Si        5.66397829651208    1.74697556639138    8.44164420131458
C         3.22780256882532    2.32686745406589   13.63728196983975
C         4.30094188927545    1.65666384307824   13.00805571077118
C         5.36895655651423    2.56562419756571   12.83787607689260
C         4.92920041207247    3.82428700066789   13.30387200065323
C         3.61818137341499    3.67076635263882   13.81313604396476
C         1.89542716840500    3.64570051156280    9.84586668970756
C         2.30450327849251    4.92707912637293   10.28489784512387
C         1.91959783412469    5.08626933341713   11.63641144625699
C         1.26228751679203    3.90319744198128   12.02644746200782
C         1.27001931362921    3.00428077795925   10.94129662500449
C         2.01893781436803    1.64854876454129   14.21560257051742
C         6.74929486443534    2.19755912477323   12.38968808506809
C         1.92602796430198    3.17663881519799    8.42318532906256
C         2.00653986339254    6.35540295485632   12.43424697488607
C         3.57227899315108   -1.05028139836623    8.07143309596800
C         4.80101125849457   -1.44790248099121   10.20904032365834
C         2.44956273888421   -0.57889450509388   10.26037172343833
C         3.77971021091395   -0.54506449454819    9.50278963020751
C         4.33253094910061    0.84965188045536    9.46735892298931
C         4.05730390851504    1.91693620391734   10.24472652522518
C         4.98512300945561    2.98572212087352    9.74480123437754
C         4.97516287060411    4.17601631503025   10.33640498545534
C         5.82956993631533    5.36403508467889    9.96616194127616
C         7.30574414239030    5.03757929988491   10.24003496052864
C         5.65999326492082    5.66217143210383    8.46841443649003
C         5.44627256445900    6.61102263888134   10.77302767145244
C         7.47902626660198    1.16165174545727    8.58694038321133
C         5.32659951514441    2.07903914337488    6.59040712878559
H         4.36711886525107    0.58710630638103   12.85668725138540
H         5.55583121267696    4.69814195552335   13.43121448022519
H         3.07493763425849    4.41512756785921   14.38236556016493
H         2.67845567125781    5.70915372243821    9.63796168223529
H         0.73271031212891    3.76279239672185   12.95906525307441
H         0.75111798401664    2.05510381912054   10.89876952366300
H         2.33715132806998    0.85266812383824   14.89260300244188
H         1.39363630992127    1.19416794394297   13.44480402715972
H         1.41465452603583    2.35151131696268   14.78781736467103
H         6.85038266611810    2.28791896441503   11.30616109674840
H         6.96553696609439    1.16545088617775   12.66536691376633
H         7.48831726188009    2.84510139202050   12.86110499144001
H         2.82279508223168    3.54186408332319    7.92257992408133
H         1.05286873215002    3.56059016653425    7.88821404461789
H         1.91371251303991    2.08961504827416    8.36760912754824
H         1.41799106725184    6.27092213856332   13.34762131253298
H         1.61077501406709    7.19010709571245   11.85268822871234
H         3.03490959960463    6.59965574121157   12.70656036715134
H         3.16553140620844   -2.06000843589393    8.07592643866275
H         4.51843603819483   -1.05964666742007    7.53485626055226
H         2.88245493655101   -0.40169617635907    7.53523960938533
H         5.75200251595910   -1.42226919044164    9.68153099826210
H         4.44808692856222   -2.47731846861213   10.24212605679449
H         4.96774718192648   -1.10361516834492   11.22735572120894
H         1.69200857557508   -0.02239237232407    9.71193441167383
H         2.56718895668445   -0.12385772967818   11.24273338549245
H         2.10317765598875   -1.60393735466628   10.38319044728456
H         7.46373731728865    4.85953346704808   11.30125579147643
H         7.60386727546811    4.14765277365092    9.69054489794469
H         7.93974086992695    5.86735717913740    9.93040416291752
H         6.25522401694892    6.52818575429302    8.18228770022686
H         5.98078948572915    4.80617416937229    7.87988771933512
H         4.61728029438673    5.86620544934686    8.23217384475034
H         6.11302958274960    7.43740039344277   10.52921136045747
H         4.42749236235970    6.91948062661177   10.55132140774268
H         5.52538886665449    6.41263656950057   11.84027835840620
H         7.64954398223844    0.31901586653381    7.92401004523360
H         8.16941865628528    1.94757307601712    8.29571635839284
H         7.73258766922651    0.84899489935093    9.59420079834353
H         4.31451489660579    2.42452651790164    6.41130140320219
H         6.01048251349968    2.82437486274591    6.19589842655108
H         5.47223133421749    1.16892448966934    6.01704145669993

