49
CSD_code = RAJXUX | q = 0 | S = 0 | Stoichiometry = C20H20N2O4PdS2 | MND = 4
Pd        5.73754126447684    0.00005213770933   10.71789682161289
N         4.92290173023320    0.72247474969095    9.00120739647892
C         3.88585212330724    0.45280711001317    8.15709958588664
O         3.02670151290222   -0.38557896770640    8.34487803688922
C         4.04381735668515    1.36030885441484    6.97569113374820
C         3.27478320863685    1.53317434445190    5.84668610763404
H         2.37061909095660    0.96313519516810    5.69907785443997
C         3.70752546801489    2.46738989213267    4.90914860738616
H         3.12654718589038    2.62702400030679    4.01270389633938
C         4.87089222881574    3.19429506339995    5.10426709734759
H         5.18080231355635    3.91007269746846    4.35715287376250
C         5.64861019311364    3.01724676152128    6.24518871357985
H         6.55700451805923    3.57843190617927    6.40067808581479
C         5.21769225318523    2.09367709782969    7.17227312863450
C         5.77054890469249    1.64723559482238    8.47798998407292
O         6.78692387383996    2.00658469110382    9.05955504158976
S         4.78737785616649    1.63293566551265   12.08920131576207
C         6.27714270137607    2.68162777950576   12.11799453805854
H         7.05820342066862    2.13393806381085   12.64423356005436
H         6.04464633321883    3.60390291663554   12.64419849638382
H         6.60700204223611    2.87647827003308   11.09722730757605
C         3.70687993224026    2.69468090389683   11.07964447410082
H         2.86868862063248    2.08854627026301   10.74748632060263
H         4.25534563740277    3.08015185199110   10.22507419554884
H         3.35163447814746    3.51211651340976   11.70253365352616
N         6.55151358692864   -0.72245754240487   12.43509643968052
C         7.58751044947504   -0.45324355749617   13.28062835150588
O         8.44715886861527    0.38496297437026   13.09420802346325
C         7.42796466617387   -1.36111564383530   14.46153192496391
C         8.19539085652931   -1.53421062547317   15.59159476355655
H         9.09930819194932   -0.96415315412643   15.74062735998034
C         7.76129177373222   -2.46859788032040   16.52833197779322
H         8.34094156892313   -2.62835791372509   17.42561336996220
C         6.59823188238522   -3.19550147713710   16.33138010278509
H         6.28723886581178   -3.91141450343595   17.07791462438433
C         5.82215165654407   -3.01823579251493   15.18937914752642
H         4.91398494849005   -3.57939673468181   15.03247773070025
C         6.25437525672034   -2.09443798421129   14.26312958774759
C         5.70323303556904   -1.64748973351739   12.95688421406046
O         4.68762871759944   -2.00670035914069   12.37388477717131
S         6.68941057006551   -1.63134194803602    9.34646689366688
C         5.20110675568434   -2.68201030842445    9.31631769668423
H         4.41982336605920   -2.13531920906601    8.78942293110047
H         5.43535799792268   -3.60391358127864    8.79024061325273
H         4.87051152048828   -2.87738004029541   10.33673673594119
C         7.77070666363120   -2.69163997510517   10.35669537399029
H         8.60703361518545   -2.08393894186264   10.69070549909414
H         7.22180344558716   -3.07913837030204   11.21006820185616
H         8.12873749147591   -3.50767706154281    9.73357543230539

