87
CSD_code = RAJZEJ | q = 0 | S = 0 | Stoichiometry = C46H32N2O4P2Pd | MND = 4
Pd       -1.20146876249113    4.46863645209810    8.20132520484064
N         0.12554855664034    3.98795505066834    9.67368602245810
C         0.18005425336600    5.09315712254243   10.46225153301073
O        -0.41793185852316    6.12901043247107   10.20493987489244
C         0.96369634250686    4.74881403111385   11.67965160289830
C         1.32255936591868    5.48001714633996   12.79016355325739
H         1.06821704736638    6.52551360991131   12.87072791286566
C         2.02082542013831    4.82051826090793   13.79706044032533
H         2.31959910502947    5.36509551697896   14.68112718967403
C         2.33874268482054    3.47644294047255   13.68654834022820
H         2.88101067609745    2.99223957642616   14.48588880788884
C         1.96930515315934    2.73833824368833   12.56559221338963
H         2.20906444898856    1.68980444311990   12.47710542976111
C         1.28102303859022    3.39314649872660   11.56875507206559
C         0.69308558054457    2.90495326236080   10.27741674054166
O         0.65254143414842    1.76356843434937    9.86642947433305
N         0.18428586694817    4.74919895748209    6.73282447246977
C         0.26351200847254    6.09699471707003    6.58082502273168
O        -0.35766061150918    6.88650072731416    7.27902809349297
C         1.11067657247568    6.37373821852307    5.38886373443642
C         1.51705689143211    7.54570310170622    4.79047887629025
H         1.25232495409289    8.50324684053802    5.21153668312997
C         2.27747801957702    7.44573868986277    3.62934077676931
H         2.61517577720285    8.34572745567516    3.13599746500123
C         2.60889413367050    6.21156410402833    3.09378243216300
H         3.20043860528434    6.16680019889474    2.19072173677726
C         2.19092550850230    5.02861680279214    3.69693211592622
H         2.44115983994132    4.06480444841181    3.28077665473199
C         1.44129357813599    5.12920156773124    4.84763878549122
C         0.79595663754813    4.08534222617128    5.71093246899270
O         0.75055371422843    2.88782196982877    5.51784783517890
P        -2.87273158491082    4.25277256609791    9.64945452448149
C        -4.23917084060228    5.32251513870918    9.09303363631574
C        -5.28217860123364    5.75402497368914    9.90131917098702
H        -5.29840004021369    5.48405471463264   10.94865437564205
C        -6.28841345269692    6.54280461933412    9.36615584028915
H        -7.09337523082663    6.88718431312481    9.99841312912871
C        -6.26314280023675    6.89422061874318    8.02611502561188
H        -7.04851027848898    7.51187692586694    7.61622871333471
C        -5.23139337949534    6.46032340037348    7.20857788471004
H        -5.20838731518231    6.73927008281374    6.16373289838322
C        -4.21338663216559    5.67820644063785    7.73717659837685
C        -3.55174196257218    2.57821202501378    9.43190219012645
C        -2.65569001869927    1.58951779314160    9.02629650716367
H        -1.60087051547423    1.83219266158691    8.88407758058955
C        -3.10747053369719    0.29927894446097    8.81523997360970
H        -2.41104095701523   -0.46739978820455    8.51229295776027
C        -4.44885981918702   -0.00285965167040    8.98527786075154
H        -4.80316096773509   -1.00772928600556    8.80898201279922
C        -5.34061738647557    0.98185397154664    9.37931705129940
H        -6.38648865598170    0.74433900874410    9.50873110412334
C        -4.89596879769041    2.27148644170672    9.60863371172554
H        -5.59043347103304    3.04124873008849    9.91584333851885
C        -2.68597799879482    4.46795829662996   11.43599746631796
C        -2.30711406532392    3.37694403564392   12.21415506168759
H        -2.27912721435950    2.38810980315502   11.77492481175803
C        -1.95550222372005    3.56548706973832   13.53838042377388
H        -1.65418912513601    2.72032486048898   14.13925835282975
C        -1.97197336150906    4.83761228540929   14.08617057310018
H        -1.68479121192686    4.98267523476443   15.11701320352493
C        -2.34072567313323    5.92600662043089   13.31039565336068
H        -2.33931726235419    6.91822598954325   13.73670803182941
C        -2.68679367141594    5.74874852326671   11.98452693949955
H        -2.92756012702615    6.59639705486345   11.35811271659733
P        -2.81819908057459    5.00688382736026    6.77535823298706
C        -3.49015282439563    3.44872190978203    6.11709810176634
C        -2.60043426102700    2.37975908393399    6.01414492388749
H        -1.55351567107944    2.51061065681200    6.29413087089028
C        -3.04826335538724    1.15711525020020    5.54728151518146
H        -2.35628658576800    0.33387383509114    5.45764912238174
C        -4.38034411649777    0.99072679767345    5.20466076791709
H        -4.73203949659095    0.03263405994066    4.85146466953675
C        -5.26619479520732    2.05046317316470    5.31589211068006
H        -6.30491212417983    1.91751587643776    5.05058164589909
C        -4.82478542165021    3.28163980372531    5.76624153670930
H        -5.51472632328952    4.10956699514758    5.85389523752506
C        -2.57164224027038    6.07170916777383    5.33377718010523
C        -2.15421088127906    5.50186264204096    4.13366879016254
H        -2.13001980209572    4.42467527089365    4.03062451366851
C        -1.76023809964136    6.31488903605130    3.08649562082312
H        -1.42937739653404    5.87251160077091    2.15858306789070
C        -1.77286647266387    7.69204412107494    3.23473946762671
H        -1.45312345873788    8.32340147625650    2.41905360466748
C        -2.17966611442737    8.26066566409373    4.43207005285698
H        -2.17500672625245    9.33422595145929    4.54911983022233
C        -2.56814334039314    7.45660483756218    5.48641565432646
H        -2.83919021814262    7.88820349626426    6.43985759591121

