70
CSD_code = RAJZAD | q = 0 | S = 0 | Stoichiometry = C31H30BrN2O3P2Re | MND = 6
Re        5.34025995395818    5.72685602276316    4.59620817125630
Br        5.23341333220418    8.28735916847659    5.12010475185416
P         7.44693715563030    5.46238203850252    5.80050247742603
P         4.16692302605293    4.93228534418952    6.65733969646957
N         7.48220037575876    5.96112888438311    7.39578580033069
N         4.88992031214775    4.66030353376260    8.18076122406030
C         5.37904739699983    3.89293349096421    3.94839382381397
O         5.38724963737299    2.86079348887438    3.44679186233911
C         6.29058948030741    6.31642898192116    2.99833295739449
O         6.87815821459090    6.68806689166493    2.08917842673559
C         3.58092169331519    6.04169711481499    3.80957436086072
O         2.53827994038307    6.27314006516715    3.39867299118124
C         6.38028447401905    6.65921247246108    8.02433144955559
H         5.72275352741460    7.10367832067670    7.27501778628849
H         6.76776536091977    7.48249315038418    8.63252155597237
C         5.54373511363614    5.74402696143994    8.90830542338007
H         6.18655585584857    5.27379489851613    9.66344319766133
H         4.80314870144470    6.36135894932678    9.43935138839645
C         8.75795314246153    6.07034289898668    8.07871972344903
H         8.64885879078168    5.76154413776707    9.12093599617870
H         9.48827362987856    5.41947843759985    7.59847563121712
H         9.14113125069861    7.09649541157985    8.05953761650134
C         4.09248974035780    3.88092227610509    9.11932440333903
H         4.75817693153338    3.46084571224668    9.87649286319228
H         3.33603477826539    4.49122589964422    9.62773728193197
H         3.59362806544468    3.06111830380224    8.60844227351576
C         7.92270056061483    3.70567026236998    5.89160733705813
C         7.93438322056072    2.99723891584873    7.08509928757060
H         7.70668888308610    3.50617587943118    8.01060799274334
C         8.22353101210823    1.64311389014330    7.08265012733734
H         8.23471412415831    1.09391314661316    8.01371023797290
C         8.48845673001348    0.99042488945545    5.89092274202838
H         8.70878378024418   -0.06696575906198    5.89165046969611
C         8.46588503973973    1.69127160132225    4.69463691915550
H         8.66453692722496    1.18176974407878    3.76352926608729
C         8.18167115457071    3.04266319150276    4.69438830383333
H         8.15425742685149    3.60099061510486    3.76533275460898
C         8.93875137651584    6.23906365767383    5.07429383950378
C        10.12541433479322    5.56168373496302    4.81779768571518
H        10.20584897118939    4.50249430977409    5.01928945596449
C        11.21068540533501    6.24413040024363    4.29781647180591
H        12.12855539055610    5.71077157555341    4.09655479250011
C        11.12435189111339    7.60113013746650    4.03477339929107
H        11.97388923268078    8.12577338943410    3.62326348948239
C         9.94871150813303    8.28298285006842    4.30166506791699
H         9.87463483263521    9.34141014112827    4.10207700748048
C         8.86134917395164    7.60638132146932    4.82087671848144
H         7.94669351275746    8.14457499617809    5.02862544498635
C         2.51998602085273    5.62692680159811    7.06706351838938
C         2.37455979668794    7.01099464147344    7.06035818360351
H         3.18839577950736    7.64581382793213    6.74046400746481
C         1.17788969639083    7.58922819699689    7.44479525517475
H         1.07468433190871    8.66357523092147    7.42342681887789
C         0.12114532159435    6.79177577795995    7.84841687298198
H        -0.81533949921866    7.24068094093943    8.14473078241047
C         0.26476185320344    5.41340434470240    7.87003814051090
H        -0.55754999959674    4.78782008348336    8.18631328694027
C         1.45755830325037    4.82968360426217    7.48633387106197
H         1.55362819568351    3.75280235382801    7.49741694253133
C         3.78527525737971    3.22045217173064    6.16396264642748
C         4.63638138472461    2.17201014330878    6.49654769181709
H         5.47294493521166    2.35360922369028    7.15496931630478
C         4.42225881326889    0.91147065490763    5.97117261334291
H         5.09262788907453    0.10474344787918    6.22962590624756
C         3.36374117781244    0.68863383128111    5.10640272560948
H         3.20093350890916   -0.29543465646001    4.69302661021012
C         2.52379597244400    1.73377131346965    4.75668971517762
H         1.70765119562700    1.56692150842918    4.06947499185737
C         2.73830901366256    2.99790230103876    5.27257590216584
H         2.09957668143005    3.82123850987831    4.97884225539106

