103
CSD_code = RAKDUE | q = 0 | S = 0 | Stoichiometry = C43H55CuN2OSi | MND = 2
C         0.04634191869737    5.45566077189204    4.43948852543973
H        -0.30066597926881    4.62137294200340    3.79898223225783
C        -0.39841008376892    6.72364995842226    3.78029362275907
C        -0.24073245298665    6.89356134514903    2.40235448723364
H         0.16249908156970    6.08016454096978    1.81239859010608
C        -0.57178283869140    8.08182773550456    1.78584486226897
H        -0.44006456545536    8.17944966428501    0.71611140693302
C        -1.07677962469824    9.15136535414664    2.51464028977271
C        -1.24702450207010    8.98401008809777    3.88325537142764
H        -1.64591199501377    9.80089494278762    4.47054596952587
C        -0.91690891583441    7.79675919208665    4.50521429025583
H        -1.06034967441983    7.68669604570713    5.56970267141188
C        -1.44364919250178   10.44693362746472    1.85016820506510
H        -1.03906829991866   11.29375259663622    2.40412480039161
H        -2.52755704629098   10.56307210228362    1.81331767430397
H        -1.06408134699376   10.48203951831634    0.83088457260491
C         3.98428074514476    5.70327924513096    4.33527066189960
C         6.21035432881543    5.63923707245021    4.54830337708347
H         7.14475897100656    5.46464104114901    5.04069439290371
C         5.93078741442908    6.07108173013766    3.29486242530558
H         6.57432370199917    6.35139775668890    2.48694908845329
C         4.82901730152116    4.98418372519868    6.50948132284229
C         4.94083058471215    5.92035422265468    7.54185590844061
C         4.68584746498595    5.48989189605815    8.83615288868164
H         4.74339706833479    6.18909678137479    9.65438897691148
C         4.33996328842965    4.17535076058093    9.08946213565377
H         4.13152646455124    3.86245406995579   10.10151103976018
C         4.25949308989315    3.26123869771841    8.05779228653824
H         3.98599261069575    2.24039287487174    8.26960272063254
C         4.50897378978182    3.64695400076284    6.74746049926635
C         5.27142965388513    7.36519363743785    7.24201607898973
H         5.82492548399937    7.41259253290891    6.29767472158468
C         6.15197240303539    8.00505135892513    8.31583723692692
H         5.59692091046666    8.17045671789191    9.23506795583683
H         6.51162322873867    8.97047761455610    7.96646089038620
H         7.01183293394836    7.37558743129648    8.53543830344562
C         3.97135749124608    8.15703800400427    7.07074891692050
H         3.35964738657488    7.72847582610675    6.27859944069841
H         4.19224159792082    9.19220176761173    6.81942499470648
H         3.39563030178463    8.13751707743188    7.99255912876311
C         4.43177830688557    2.63885927570179    5.62612992732919
H         4.75479069107561    3.11211116352664    4.69309691285148
C         5.36447812601150    1.45489176368379    5.89238264656131
H         5.03766081411161    0.88882179215555    6.75998482633947
H         6.38217536494107    1.79870292366769    6.06818552772574
H         5.36874801066327    0.78712242931203    5.03391507988197
C         2.98997638771577    2.16608579884801    5.43891915652339
H         2.62594433375084    1.66727698149960    6.33197027950667
H         2.92724950812393    1.47251904913625    4.60369571564675
H         2.33644947123743    3.01449776330919    5.23544745419801
C         3.84092028230264    6.50512013697755    2.02837922877089
C         3.52955998817641    5.54723561119303    1.06146982947671
C         2.81065177164319    5.95684520058467   -0.05272031940251
H         2.54514383938444    5.23731224783401   -0.81123325368548
C         2.41995076065796    7.27393487283863   -0.19818194338665
H         1.85997940427108    7.57368822652591   -1.07130289849146
C         2.73158633448537    8.20429982751932    0.77340206348257
H         2.40573476828544    9.22539636920160    0.65686001064293
C         3.44643755801346    7.83829806843932    1.90532357887048
C         3.75968399396076    8.86093536210553    2.97079648302602
H         4.36195639094771    8.39317262137485    3.75595111532815
C         4.57103226206342   10.02354033953507    2.39393185255021
H         3.99520326463648   10.57104085544690    1.65313142189030
H         5.48101101787422    9.65917718190627    1.92057683230046
H         4.84740534386643   10.71367148868279    3.18787796504095
C         2.46248893910303    9.35848870272997    3.61116111492312
H         2.68418261280908   10.05437359836633    4.41707130000469
H         1.89421654911149    8.52380850362036    4.01569069980756
H         1.83544166106670    9.86204862371519    2.88127340525886
C         3.91264678242237    4.09636740224048    1.23583747518499
H         4.58800961016435    4.00229556356523    2.09219341722196
C         4.64569426826966    3.55055363112650    0.00905768113127
H         3.99164152154793    3.51583631263044   -0.85755974581898
H         4.99712278179529    2.54045846702119    0.20751016926637
H         5.50431362481422    4.17379137774187   -0.23287930074683
C         2.65682513031747    3.27494448596394    1.53820876625871
H         2.16005625549592    3.66388601617135    2.42622028147518
H         2.92023826452364    2.23424211170847    1.71258342042400
H         1.95908757174577    3.32122238118350    0.70606583666737
C         1.06712822847657    6.02948314543224    7.91269763764201
H         2.03050844030787    5.67728076818916    7.55412001263631
H         1.09718667541207    6.01893138113813    8.99734943643220
H         0.95595971391147    7.06334427962206    7.59840810952678
C        -1.98224438814187    5.33136434791299    8.13546868755138
H        -2.22752930042121    6.38800720679273    8.11676416882476
H        -1.90728330859812    5.02412699137986    9.17328686980330
H        -2.81134656002308    4.79298359546621    7.68942963573183
C         0.10386463503910    3.14137453327907    7.50395391162561
C         0.85350358333305    2.73045115927288    8.60171159648741
H         1.21945158100704    3.47113084634758    9.29783624195958
C         1.14050969969423    1.39451641710074    8.82008413468062
H         1.72212112210662    1.09875546714264    9.68371354097069
C         0.67842800145806    0.43208388844892    7.93791826007242
H         0.89881443145321   -0.61306451447286    8.10732218465265
C        -0.06885986478236    0.81890172144733    6.83801831145409
H        -0.43353679633643    0.07319160903424    6.14498302952642
C        -0.34907152878870    2.15740979461872    6.62998282594008
H        -0.93255637968217    2.45403275684860    5.77081405120444
N         5.00853257646304    5.42162305560027    5.16767801186579
N         4.56689690708885    6.10402593697219    3.18560785833674
O        -0.70537675566771    5.26658900706664    5.67610961251750
Si       -0.36022964633970    4.96796333372844    7.21237599626917
Cu        2.04987266978409    5.51846247654146    4.52499889617304

