25
CSD_code = RAKGEQ | q = 0 | S = 0 | Stoichiometry = C12H8AgNO3 | MND = 2
Ag       16.06272357651826    9.60438521024128   12.68882651980944
N        14.88521965505882    9.62592673116334   14.62830021477940
O        17.78244776931020    9.24232476711896   13.11713743507910
O        10.82326918886327    8.49532441801183   22.72472149228966
O        11.37786128820336   10.68020568930250   22.98689037919634
C        11.95455207503276    9.59250472676987   21.00810291099585
C        11.28068842974249    9.58865708265017   22.46742900436913
C        11.82287813171414    9.08770888208829   18.68598818343729
H        11.28477208547782    8.66372475259094   17.85118651535589
C        13.10771964495568    9.60018400953272   18.50191853491865
C        13.71929464172105    9.60683053629273   17.17188438526649
C        15.62156434987386    9.37859980164036   15.71794600189774
H        16.67469036157030    9.18861874437849   15.54499901804659
C        11.24770175455248    9.06909672836317   19.94396009328490
H        10.26686993723518    8.64727207462040   20.09752091981040
C        13.58222475316437    9.86126599020150   14.78909754569540
H        13.00986481435203   10.06127381640030   13.89317380638551
C        12.96587812314162    9.86060869395349   16.02235824538575
H        11.91154990541439   10.07633884621296   16.09214651917186
C        15.08309926692697    9.36165727947785   16.98761863398789
H        15.71842157583700    9.13870491196082   17.82962377726336
C        13.22172181581126   10.11884894247731   20.85522850347428
H        13.74274854371307   10.53665216715228   21.70229516880667
C        13.80322562670410   10.10800990254522   19.59999220851685
H        14.78681268510333   10.53297529485420   19.46685398277458

