91
CSD_code = RAKKUM | q = 0 | S = 0 | Stoichiometry = C40H38I2N2O8Pd | MND = 4
Pd        1.49692072743683   13.30070859837080    3.40431087819073
I         3.33909780320733   10.97274486343449    2.18710891354349
I         3.64053418322939   14.11832177337036    9.96115250061847
C         2.34706162722188   17.34891843617766    3.17219262490151
O         4.10136730410252   15.17166371806557    5.45247365019778
O         2.86581094248323   17.67430393608933    4.21765936583953
O        -0.71006927634099   12.90624713610663    0.53613078925540
O         1.58928349821876   18.18766981715913    2.45064492925269
C         2.44425520190779   16.01222949726051    2.54766926164714
O         1.50893297177581   12.64419369601552    0.31280736762023
O         1.17663403713662   15.53640317615553   -0.86155408605592
N        -0.26408356416490   12.23736953404454    4.01750490956440
C         3.83133545256342   15.34667517952549    2.47405699054143
C         0.74354633667512   14.30614762391611    1.79709141632724
N         2.17427078844496   12.27729580930033    5.15404275085462
C         6.41601469113903   13.25084468281042    9.14897472015726
H         6.39716461441996   12.82327073055950   10.13979935385450
O         2.61857607465629   16.99292116824429    0.04174887443579
C         1.40686502742307   15.65008613635829    1.52234594453707
C         0.41281188187779   13.29323803208361    0.80307985517104
O         1.86748137951652   15.07707611870756    5.60208180914529
C        -0.19616417885945   12.04877938933599    5.35230547980887
C        -0.06588914952762   15.53981545294635    1.97655266057872
C        -1.14741323092753   15.89134987454157    0.97563114138288
H        -0.87043265436187   15.59551800971244   -0.03070714009290
H        -1.33308987340278   16.96481295036636    0.99313732682513
H        -2.06769543166425   15.37211757408907    1.23758666657042
C         1.68692629193699   16.02664413302881    0.11894570083007
C         5.31761194398524   14.51963062362020    7.40861135751152
C        -1.34755036948154   11.99191438059853    6.13491914981817
H        -1.27590360660846   11.88362036511433    7.20484893865075
C         2.87575736301734   15.08375374145033    4.91123914931811
C        -1.45881356017594   12.35121079991207    3.44621893634830
H        -1.47694548079811   12.48874770975264    2.37082132458294
C         4.15122339336366   14.50068230860203    1.25881212662371
H         4.94724459194261   13.79963700977827    1.51082438376371
H         4.50025294078262   15.13200331637353    0.44369326647803
H         3.28731613016240   13.93643301381483    0.91968677834452
C         5.04313477959654   16.14581899887134    2.90855008873365
H         4.82935503334578   16.77425228278565    3.76551637763151
H         5.37325804299037   16.77645206764107    2.08352081712519
H         5.85239833594244   15.46481950649661    3.16675180038145
C         2.83741740278748   14.84169037158067    3.45942498457684
C        -2.64449921388811   12.28481170389317    4.16046095861554
H        -3.58667098544951   12.37871565828078    3.64511025515506
C        -0.45249637843238   15.96216534733598    3.38192634521296
H        -1.42470380747952   15.52582318875164    3.61953208077881
H        -0.54645398377641   17.04484993108476    3.44724574919951
H         0.26587479336759   15.62487006876850    4.13249996570400
C         1.43532222386531   19.49160417117719    2.98385235260323
H         1.08219931858765   19.44121579078320    4.01676984790121
H         0.70802584745382   19.99650926589394    2.35267873640650
H         2.38852758496587   20.02481594641148    2.96713806707938
C         2.95524747366201   17.41810734763150   -1.26747758234400
H         3.25993598227100   16.56513873898352   -1.87867917018773
H         3.77434839617354   18.12492377119331   -1.15840022254364
H         2.09858163048539   17.89954771767913   -1.74449451397185
C         1.35826655501408   10.24652804019660    1.95557481376373
C         1.22121509401594   11.38547600476076   -0.28389389340165
H         2.17515966757665   11.02154391495226   -0.67522062055073
H         0.50163357618357   11.51294473876177   -1.09817606717009
C         3.72154826235976   11.61577678142000    6.83302159007315
H         4.74929408677573   11.52016229748620    7.14481947489757
C         4.16117416891723   15.30450819723428    6.86465264310987
H         3.20421661315561   14.96886962871077    7.28301376036330
H         4.27885999571427   16.36990461642974    7.10684274602275
C        -2.58768725844274   12.11293432326032    5.53386357185899
H        -3.48835530194917   12.07792461937204    6.12796926749095
C         1.15088733457549   11.89494005278488    5.92986482572685
C         1.37802339973082   11.35213442075585    7.19545754416249
H         0.55521994280167   11.02896868108891    7.81169004456392
C         3.41850635433877   12.14276613346441    5.58923113816917
H         4.20431831700924   12.46425755294508    4.91476528511549
C         0.66274535826491   10.47009815935383    0.77494286300705
C         5.32059280393003   13.95300259087250    8.67570742365969
C        -0.61372848951306    9.93256962542275    0.66274710495298
H        -1.17681579544977   10.11540306929350   -0.23931084912820
C         0.81204653039497    9.52080122742310    2.99899299724914
H         1.37783112756636    9.35995420695479    3.90558809229587
C         6.45181526391856   14.35333684619827    6.61949303282389
H         6.44926805070028   14.79176472741214    5.63423556656130
C        -1.17269809430571    9.20169437056408    1.69535570300132
H        -2.16772016475781    8.79710521079414    1.58939438148554
C         7.53209806430579   13.09531159387011    8.34654866585451
H         8.38304550896184   12.54484127047865    8.71761787691803
C        -0.46494505541409    9.00398025899320    2.86890222324323
H        -0.90115045972561    8.44626054694406    3.68440141245343
C         7.54755478435090   13.64600170846899    7.07620901846184
H         8.41392355762553   13.52879840805238    6.44352247766185
C         2.67592930728330   11.21915546068784    7.65357084654366
H         2.86707759515812   10.80924852259140    8.63362803365113

