56
CSD_code = RAKLIB | q = 0 | S = 0 | Stoichiometry = C22H31NOW | MND = 10
C       -10.08163703588857   -0.66224961892184   -3.54689494607047
C        -9.16920866661127   -1.75394336779934   -3.50479327218319
C        -9.86168822390777   -2.89167210707124   -2.96847142347815
C       -11.21052276353515   -2.48123527385961   -2.69097198125765
C       -11.34727499371160   -1.12116280610785   -3.08689128676274
C        -9.69194727913349    0.76615753028909   -3.77379718240235
H        -8.89337411630620    0.84528467114046   -4.50874903494681
H       -10.53420177757406    1.37479826392283   -4.10015629703029
H        -9.32452915287478    1.18817825834765   -2.83533455322609
C        -7.69470026055707   -1.67691028986226   -3.77068258430972
H        -7.30651278740745   -2.64920856381407   -4.06818523669565
H        -7.47638383327596   -0.96773274946212   -4.56794709779571
H        -7.16357097117124   -1.35627247197029   -2.87183276468362
C        -9.19349347944983   -4.15400540352158   -2.49591656961579
H        -8.49655452846301   -4.52780843756779   -3.24580350199053
H        -8.63709362973294   -3.96210609604284   -1.57624378758244
H        -9.92498403487741   -4.93345567868213   -2.29379946834443
C       -12.21213969310165   -3.23575071564547   -1.86970583021578
H       -13.23195435147501   -3.00284934358955   -2.17085310320248
H       -12.06957925966003   -4.31043341339285   -1.95209511366529
H       -12.10000401435075   -2.95851384213798   -0.81910625900428
C       -12.53213592977866   -0.25092323788583   -2.77695665271250
H       -13.46593696458089   -0.80526265536438   -2.86413131513232
H       -12.46106039354449    0.12224318228982   -1.75260722060556
H       -12.58157757135407    0.61235086310735   -3.44023127567673
C       -12.74727634472542   -1.83816888426721   -6.10942224712731
H       -13.58032151928971   -2.46552398151965   -6.40107188902530
H       -13.04068977213084   -0.97702536681570   -5.50795016012560
C       -11.67070299461207   -1.68794708594575   -6.98817499538598
C       -10.64308199542554   -0.78165347285957   -6.60678319477233
C        -9.44294432784210   -0.56714275175899   -7.41451227278150
C        -8.77634393979925    0.66054337624635   -7.35385568997998
H        -9.17996142165135    1.45502201064379   -6.74016486516697
C        -7.62086913548368    0.88664522600758   -8.07651121542377
H        -7.12404365278451    1.84424315887467   -8.00771332405181
C        -7.10331433651083   -0.10729135373008   -8.88903720796915
H        -6.19800578394784    0.06570175845028   -9.45171180197925
C        -7.76146817587849   -1.32379288881625   -8.97737912464162
H        -7.36845828771945   -2.10342242203966   -9.61319755777290
C        -8.91489790386573   -1.55313110241729   -8.25450773538077
H        -9.40052625050562   -2.51418810340257   -8.33292951687975
C       -12.04116767344865   -4.30039287221794   -4.92251524139467
H       -11.54937734957851   -4.97562321342301   -4.21159638129714
H       -13.03639663627149   -4.08297270444858   -4.51561095684302
C       -12.22634894087396   -5.09517720738968   -6.21162106821211
C       -13.10070242091710   -6.33209707681677   -5.98672088728455
H       -13.21521279681923   -6.89534676855500   -6.91047871632740
H       -12.65139699450854   -6.98458589105624   -5.24114405241696
H       -14.08979018829951   -6.04277044236543   -5.63561241863759
N        -9.71143980351994   -3.49609230239200   -5.96304721578405
O        -8.90585299340758   -4.22676123577452   -6.43939527307039
W       -10.77384833000395   -2.45718112014237   -5.01157930845820
H       -11.59607630849093   -2.29243857475939   -7.89054062375965
H       -10.99161649433304    0.12685117123189   -6.10735033148007
H       -12.69348249298876   -4.48167477343390   -6.98683680876707
H       -11.25461902204371   -5.42452180150205   -6.58567015920662

