53
CSD_code = RAKLEX | q = 0 | S = 0 | Stoichiometry = C21H29NOW | MND = 10
C         2.03785572134505    4.15652446273300    8.38362700540586
C         1.04628524630880    3.47915948087827    7.59761046329099
C        -0.31161694002340    4.01895678325225    7.25794315463563
H        -1.01852334386366    3.79713673663493    8.06041038003795
H        -0.68969564123535    3.57646098187157    6.33761557907986
H        -0.27410408799381    5.09863612650713    7.12481104297902
C         1.49435608413637    2.14879040081317    7.37272869099463
C         2.77780502616418    2.00298866684643    7.97370813018614
C         3.10106864358479    3.22103155978403    8.63251296242503
C         3.84309287325034    3.02933321915753    4.33496499279119
H         4.05544839021576    3.74630642104064    3.54347384247370
C         4.80115503374395    2.72254342381062    5.30575121105461
H         4.75857691407824    1.73872242980439    5.77415913091680
H         5.80891879188537    3.10032781982852    5.18702614967331
C         2.56101112159029    2.43240259233289    4.47916425732893
H         2.57292658296812    1.40417774043920    4.85298695641060
C         1.46430273450790    2.68779815590331    3.54612085172616
C         1.32227696284094    3.90235234317165    2.86732024148439
H         2.04087861813460    4.69349811230218    3.01950601547292
C         0.25861002554913    4.11556029268498    2.01362347749857
H         0.16533972546303    5.06452291416762    1.50633034366151
C        -0.69017266315827    3.12629606742693    1.80767743391544
H        -1.52351014485515    3.29916919389864    1.14297703863490
C        -0.55642120470030    1.91170023605662    2.45781498750626
H        -1.28268619792134    1.12742514955953    2.29664642511819
C         0.50795740845335    1.69497276444699    3.31167020198683
H         0.61074371346636    0.73225340354988    3.79445132303704
C         4.71835710911516    5.05699212362621    6.86958272873717
H         4.36520427413638    5.73562096246368    7.65521186130419
H         5.53768068457902    4.47077026521637    7.30283144107090
C         5.29995385434484    5.93803057892445    5.76842146066543
H         5.68808691288274    5.35338759308097    4.93524097023568
H         6.12540671399851    6.54020227045887    6.15836212353765
H         4.54874144594018    6.62542302057374    5.38442731611269
N         2.42394895929808    5.20913909334623    5.49830555681902
O         1.96088455271455    6.22344307636898    5.08957710335723
C         1.81514034805303    5.47112270036588    9.08065412394891
H         1.42988929318116    6.21817242439998    8.38667264441105
H         2.73928308657328    5.85010186465746    9.51125864997370
H         1.08987835032411    5.34738635648626    9.88746265067463
C         0.63755193890427    1.04527742835423    6.83344589809434
H        -0.02395902117161    0.68800869911061    7.62613645581735
H         1.22995424142955    0.19815123204239    6.49181550149768
H         0.01420973854930    1.39340202214562    6.01151428203427
C         3.51343642857080    0.70424681165571    8.14752300343032
H         4.58295733637487    0.86757937529273    8.27407533227482
H         3.36623868348711    0.04010904026642    7.29569019315318
H         3.14837135815930    0.18624709529813    9.03744967918294
C         4.20839406041225    3.39161715443323    9.62857151929397
H         3.87968783838620    3.02272036193370   10.60280404880818
H         4.48787756849782    4.43650981620353    9.74008486179870
H         5.09560858125653    2.83088941314263    9.33928793172729
W         2.97123626806457    3.75770174124684    6.33896037231182

