50
CSD_code = RAKLAT | q = 0 | S = 0 | Stoichiometry = C20H27NOW | MND = 10
C         6.19982875975759    9.92122393837564   11.92637976668446
C         6.25610666918775    8.81154663074231   11.03982464551736
C         6.11891931796574    7.61018109717892   11.81996043547669
C         6.02362058705183    8.00142379605314   13.19664712961444
C         6.09615823174504    9.42152907026690   13.25764526895610
C         6.49798559068385   11.34545004365854   11.55061986078309
H         7.57688271869404   11.51693705591814   11.56320578471789
H         6.04292873921694   12.04882928613512   12.24788795315546
H         6.13667414829332   11.57484252573041   10.54882859112036
C         6.67482752959326    8.87792951782488    9.60225658616044
H         6.31635367773159    9.78710573063653    9.12312871015578
H         6.30434203916197    8.02519940344519    9.03878223495817
H         7.76570776277000    8.87455450826890    9.54461880804461
C         6.36952940038130    6.20467467323812   11.34655788317153
H         6.23578310895201    6.12404475943296   10.27015862540880
H         5.68638249827177    5.50553515757504   11.82829516634785
H         7.39187744208657    5.90557118464067   11.58655955337547
C         6.04999521722737    7.07043930527950   14.37288561517839
H         5.58077176343298    6.12089110315335   14.12248339250405
H         5.51956783899492    7.49758436989113   15.22271398996981
H         7.08063796290167    6.87383025268406   14.67623852153472
C         6.31665102958958   10.20477769798746   14.51534095270062
H         7.37090314572337   10.13876815232789   14.79418785911410
H         5.72866562210669    9.80529253347343   15.33987146729619
H         6.07456392727645   11.25859051564130   14.38819723292837
C         2.81265649495449   10.48252814639461   11.28986609626954
C         2.27605385229200   10.00313850310774   12.48946828386982
H         1.28910160712011    9.54257231923026   12.51435069487032
C         3.10711158304426   10.05828293265957   13.63966625308236
H         3.74245609011821   10.94687415323343   13.70380118494501
C         2.67859323757322    9.56503781808747   14.94797680005988
C         3.15584613547123   10.17811288218233   16.11068642930577
H         3.80543491244594   11.03953278110238   16.03022994178996
C         2.79552330865015    9.71898977026442   17.36315625675958
H         3.18156004875116   10.20994529300464   18.24541886093900
C         1.94048737185979    8.63770363116004   17.48816453312661
H         1.66133150312020    8.27443466574580   18.46603963233950
C         1.44179788849589    8.03019751238161   16.34646965190856
H         0.76890307133725    7.18988375917906   16.43393021043550
C         1.80164641203727    8.48550239033350   15.09384315169908
H         1.40850814260844    7.98655675308972   14.22134174388175
C         3.54055891478490    8.15724354546552    9.96899466716042
H         3.87199736518033    8.88120318198985    9.22330322166085
H         2.46355275947133    8.03509737638648    9.84070492634561
H         3.99228813459549    7.19490811998544    9.71859080057062
N         3.09931088346066    7.32820379631998   12.45018738879965
O         2.54318810160401    6.30783303518733   12.69214596914671
W         4.13165270929390    8.70390043590824   12.05430202941929
H         3.52948999616616   11.30299661432623   11.33830933341588
H         2.17918474675428   10.50676827371547   10.41137590332597

