86
CSD_code = RAKLAR | q = 0 | S = 0 | Stoichiometry = C33H42ClIrO7P2 | MND = 4
Ir       -8.63240757891127   10.05431076623992   -4.18994414332725
Cl       -8.78165489611899   10.01513702185013   -1.89423951555233
P        -9.46139715521325   12.18266498810403   -3.90440964449192
P        -7.82371013137481    7.92347809636227   -3.86869390557242
O       -11.78258553924451   13.61752110505416   -3.56040580664708
O       -12.17876941248492   13.87181287247889   -5.84921603978757
O       -10.19660680120244   12.75429003112174   -6.38125756332468
O        -6.77343115802574    7.45140579458729   -6.25006758241548
O        -4.85492430225660    6.34020032002449   -5.51175876287253
O        -5.54016498134953    6.50531791750387   -3.28379986518046
O        -8.44775336410693   10.10257681509743   -7.18271220158798
C        -8.69833620232122   13.15233852847982   -2.57122899079622
C        -7.31730061482004   13.00125864747378   -2.45937277252262
H        -6.80933050161328   12.32881051827598   -3.14153692301147
C        -6.61442866705873   13.67642329211937   -1.48144938130006
H        -5.54469850204753   13.55062142899202   -1.39817286329074
C        -7.28813473484205   14.50685366992542   -0.59933796580334
H        -6.74361691416124   15.03056862198256    0.17253701822110
C        -8.66065454347789   14.65620101436105   -0.70165734992563
H        -9.18661103674929   15.29669337383658   -0.00838563047679
C        -9.37035036728725   13.98421973235255   -1.68282234877388
H       -10.44074749991767   14.10617335910201   -1.75370562738414
C        -8.04725658284312   13.60502235502380   -5.85961359684940
H        -8.06958919007443   14.19227259234829   -6.77478763471800
H        -7.60015014139844   12.63680423841353   -6.07853634680733
H        -7.45278356375840   14.12245530032984   -5.10968446515638
C        -9.46484048552374   13.39696443578940   -5.34422590422532
C       -10.12813748745145   14.71511062627959   -4.95688973843421
H        -9.65440663722162   15.13742598462517   -4.07000013040960
H       -10.04855121844181   15.42183621247023   -5.78566121619641
C       -11.61636982185231   14.44751927070371   -4.68965484832595
C       -12.38470881073546   15.73247348893906   -4.39742173609094
H       -13.42172577259647   15.48222734154363   -4.19634183655515
H       -12.33452761535772   16.38776853666239   -5.26044680666578
H       -11.95520303334007   16.22158140858745   -3.52889858421324
C       -12.18335124714774   12.13396353605774   -7.46784758530347
H       -11.98697031417270   12.87218940227496   -8.23884998335989
H       -13.25467731835441   12.00365052921457   -7.35813308646062
H       -11.71124213418304   11.19579039956254   -7.73977191964799
C       -11.58371328469217   12.62506374001358   -6.15525746198448
C       -11.87750437700450   11.66276086332656   -4.99401768290066
H       -11.39227349771079   10.70005998116708   -5.18165929385069
H       -12.95855273951700   11.53059363594791   -4.91699999384358
C       -11.32856219471652   12.27678094949007   -3.70296298460544
C       -11.79492090407574   11.50304395790603   -2.47711990735136
H       -12.87526709744488   11.58659672116950   -2.37661656144725
H       -11.32482606098534   11.89507476145018   -1.57837820024993
H       -11.51745695395292   10.45673853578872   -2.58125628239661
C        -8.73198230004720    6.89852934661787   -2.67526131484410
C       -10.11830466450740    7.03114623411700   -2.73034390419675
H       -10.54799835717819    7.72322883468609   -3.44574575031549
C       -10.92651783680186    6.31276497105991   -1.87181553442359
H       -12.00008803650285    6.42425622453258   -1.91748174069472
C       -10.35481393346319    5.45708332720448   -0.94309000919234
H       -10.98272912113869    4.89931109389519   -0.26397276531489
C        -8.97808846853655    5.32591636403711   -0.87944243149118
H        -8.53240422657690    4.66556363868850   -0.14950878341981
C        -8.16265296518399    6.04123966705784   -1.74037865079573
H        -7.09001284142790    5.93315419789267   -1.68201534345994
C        -8.95654259245541    6.55478590210720   -6.03343716621708
H        -8.80971524289442    6.00221830348675   -6.95864225227393
H        -9.38948026614290    7.52466341658881   -6.27260247132219
H        -9.63120782046460    6.00242567022499   -5.38282721783267
C        -7.61854411707200    6.76162935568031   -5.33672824191701
C        -6.98659836133296    5.43868604885624   -4.91507612288854
H        -6.94938245862466    4.76193278030023   -5.77139296357568
H        -7.56058620051110    4.97814482891131   -4.11022270072436
C        -5.54857063675701    5.71524554281837   -4.45316892108497
C        -4.80072045102635    4.43047964544087   -4.11119107174978
H        -3.80181484492591    4.68664089527162   -3.77201994715207
H        -4.73033102837824    3.80690935984535   -4.99603120571156
H        -5.32742967364530    3.90407308135273   -3.32157554953034
C        -4.67703724629560    8.13659551815903   -7.05516268919313
H        -4.76459989042931    7.42621484760425   -7.87104028013260
H        -3.62985378367941    8.27381509376898   -6.80750366730929
H        -5.12566042272467    9.07944604837515   -7.34974439739576
C        -5.42810462403348    7.58977861231245   -5.84664363195858
C        -5.29840309935108    8.51221610317045   -4.62467835781175
H        -4.23789584610791    8.65404524461033   -4.40723951384424
H        -5.77181979910027    9.47541614892811   -4.83832213997432
C        -5.99534390700376    7.84467806457239   -3.43568085271368
C        -5.69977891258704    8.57791922725999   -2.13417849370443
H        -4.63939790430797    8.50362412801323   -1.90116102439242
H        -6.27243913544225    8.14690060512843   -1.31644177701367
H        -5.97931770246246    9.62395993771696   -2.23502114937102
C        -8.51784789172135   10.08351496942724   -6.02613831104001

