55
CSD_code = RAKMAU | q = 0 | S = 0 | Stoichiometry = C22H29NO2W | MND = 10
C        -1.16879957189802   -0.35107464757464    4.69195241813499
C        -1.03989758583345    1.00725163491881    5.14084022123549
C        -0.60242594080214    1.79061015336876    4.05419920076385
C        -0.44074917489175    0.92991254787455    2.91127586407005
C        -0.81663344382415   -0.38689781869251    3.30214276305905
C        -1.90880558734483   -1.42903806028753    5.42721951605669
H        -2.97948953820362   -1.32836955517524    5.23548823037108
H        -1.74701342086063   -1.35294758694113    6.50001953228211
H        -1.59670294808880   -2.41921922355021    5.09905295167480
C        -1.50547390830049    1.50999373295548    6.47440654377206
H        -1.15794227102759    2.52548047237724    6.65772910156321
H        -1.14319516561662    0.86888756441926    7.27625666219746
H        -2.59737219954804    1.51233770795942    6.50926942249023
C        -0.59734751571247    3.29031581856868    4.00729454640585
H        -1.61393197648711    3.64506441826732    3.82206819528467
H         0.03467608631087    3.66090417682574    3.20296830667016
H        -0.26263867739856    3.72788534894618    4.94785719245722
C        -0.19520219294452    1.36480042998220    1.49703331401263
H         0.39070107858805    0.62015327178287    0.96013639097458
H         0.34377362866034    2.30876481475237    1.45433424126568
H        -1.14577372449764    1.49059381027274    0.97434130409471
C        -1.00820916183456   -1.55046323067913    2.37073407420219
H        -1.98044358174488   -1.47900089538330    1.87927775290374
H        -0.96649790874451   -2.49445264263243    2.91109793101386
H        -0.23735001454496   -1.56385999697995    1.60155073343517
C         1.07045210071348   -1.15645283839486    6.17020416783808
C         1.67707356941414   -2.54341987434665    6.06030193997802
H         1.19247187358304   -3.04906737628614    5.21947769142137
H         2.73341163579389   -2.43715149591701    5.79889095366729
C         1.51976726571643   -3.36286615797216    7.33807856262757
H         2.01107699240956   -2.86093133466987    8.16806159863759
H         1.95705958130686   -4.35055013755965    7.21483748646439
H         0.46698337991872   -3.47200802576673    7.58681654192816
C         2.70072333992057    0.72226700450549    6.08744823618103
C         3.21255645296057    1.04669973413522    4.81790817789387
C         2.49775965515724    1.97435219843969    4.03090421169968
C         2.90158162243655    2.33950654456902    2.67498676546694
C         3.44137552194840    1.40516796904414    1.78655836683677
H         3.56940131683371    0.37910758435835    2.09707405368136
C         3.78765985960140    1.77299923186732    0.50147135576936
H         4.19866378113861    1.03529102528845   -0.17180195348109
C         3.60421355656332    3.07710488321981    0.06893677188757
H         3.87114526459918    3.35972984814275   -0.93836742308264
C         3.07454057586437    4.01567007599459    0.93811776080018
H         2.93127892820888    5.03606300377787    0.61242644235646
C         2.72767682252317    3.65139347244959    2.22519400206648
H         2.32904633172779    4.39734188856090    2.90038816921683
N         2.08183288703757   -1.05200895362023    3.56331716924850
O         2.59879574825041   -1.86888122722148    2.86539984149564
O         0.49846946157426   -0.79451823495537    7.17021289972883
W         1.11895460863419    0.13738853264574    4.44104320599357
H         2.15097010450025    1.48803700585734    6.63743027988376
H         3.29095380994057    0.07340862655510    6.72569341821743
H         4.09426810709178    0.53742076628011    4.42950784512904
H         2.01598056121438    2.78497401565768    4.58563505005461

