49
CSD_code = RAKMIZ | q = 0 | S = 0 | Stoichiometry = C16H26Cl2N3PRu | MND = 9
Ru        4.00810807409137   11.35881296013133    5.70404951689499
Cl        5.22897859212255   12.69638634968794    7.22588772270492
Cl        5.57536083377437   11.87689333658515    4.00628709517436
P         3.39075162891141   13.43627334733490    5.01292504290836
N         2.25576177562033   14.92254343809613    3.00362035366535
N         3.88624576464681   16.05569287561529    4.40336743527126
N         1.67513256999674   15.56637152830440    5.28056423549051
C         2.68104718892507   13.57027795601439    3.30202020033714
H         3.44812243215993   13.25791048587629    2.58400701903892
H         1.82006475856573   12.89701000298024    3.21047543216967
C         4.55719984091618   14.87782939699296    4.91124413632830
H         4.95414202213403   15.07888738998439    5.91286686825409
H         5.39078798811874   14.61179288404006    4.25118038261157
C         2.01893437510577   14.30968180550681    5.91491468419967
H         1.13038902681313   13.66779743076652    5.93883096361725
H         2.34009303310025   14.49959727074278    6.94530690710390
C         3.37241660672931   15.85520913159877    3.06054310804211
H         3.02439760650024   16.82083739145809    2.67986549033240
H         4.17705518511825   15.48464071641351    2.42136032806886
C         1.21679766680235   15.37414529726456    3.91402170906362
H         0.39882110193922   14.64800178549046    3.91081870222277
H         0.84041282772448   16.33435490731338    3.54729196179743
C         2.80578692879045   16.48403785190175    5.27198621579707
H         2.44697640796361   17.45614318721729    4.91889245373950
H         3.18559552420182   16.58955243827782    6.29100574208260
C         4.19497236135094    9.47319249851417    6.98099698154738
H         4.90451085347429    9.20078699611390    7.75580636490730
C         4.44265114561762    9.11701133801393    5.65569552854092
H         5.34257205250564    8.56968523186113    5.39592721902816
C         3.49915711976796    9.42300930628737    4.63083502781187
C         2.29959599259389   10.06051411189225    4.99285139053431
H         1.52905621384966   10.21775393890288    4.24496886981362
C         2.05238466888903   10.42711550046209    6.34285469910838
H         1.09225040981442   10.85625243397550    6.60560212418435
C         2.99741448206430   10.15399634615590    7.34981569567054
C         3.78117619347769    9.02288329914246    3.21578291096704
H         4.07659027710220    7.97549265538942    3.16615850221426
H         4.60571811797523    9.62568092191259    2.82779110551793
H         2.91156879797804    9.18065045367731    2.58168892278875
C         2.71001333208301   10.44334096880705    8.80401441279461
H         3.64237830824173   10.31410617324562    9.36436807342092
C         2.23475497339600   11.88002765096751    9.02093573396754
H         2.96137558262862   12.56947801986928    8.59357175051194
H         2.14953250817198   12.08286296760287   10.08537346864759
H         1.26381228620201   12.05339537184308    8.56226939281855
C         1.68318547519227    9.43246398113413    9.32639761977181
H         1.51246783934539    9.59319431944428   10.38782831058968
H         2.03803471196491    8.41330845175039    9.18415841968515
H         0.73454653551795    9.54281589743116    8.80457376821543

