77
CSD_code = RAKNUN | q = 1 | S = 0 | Stoichiometry = C34H38IrN4(1+) | MND = 6
Ir        4.77478428324797    2.54755153540386   17.16323191457748
N         3.31085246718481    4.00787054526903   17.21298193684420
N         6.00141796588575    0.88353497521290   17.10748227482670
N         6.05310913448424    3.15396651779178   19.94387648068110
N         5.66180843113068    3.79734141758011   14.44480188899599
C         3.29741122521670    5.06518943000217   18.02683187407390
H         4.14798556345477    5.17971296352392   18.68543582044651
C         2.26771190946322    5.98259947178520   18.05268875844473
H         2.30368193148606    6.81873376871699   18.73124271936374
C         1.19264135663479    5.79792795242977   17.19065724100749
H         0.36585963173664    6.49089065223146   17.18629116646355
C         1.20323481551293    4.71204849986523   16.34243073703238
H         0.38103549631394    4.54589554852062   15.66666422309181
C         2.27573929505812    3.81515518159017   16.36097363192407
C         2.38609789691465    2.64308341448082   15.51129673215416
C         1.45777195852317    2.31293234358124   14.52022188495180
H         0.58968207690049    2.93160022500538   14.35089642628065
C         1.64767200099091    1.19661437264782   13.73746185337232
H         0.93065238066768    0.94856166957744   12.96918124801087
C         2.76058264961208    0.38004068877056   13.92640793477828
C         3.67754301383636    0.71540445393979   14.91655405275999
H         4.53807396295525    0.07065064998568   15.04528029991414
C         3.52233123050728    1.83425715926789   15.72269356636055
C         2.95271203645916   -0.83620782390139   13.07797786012692
H         2.25744642601934   -1.61610811957096   13.38843480863787
H         3.96390366424048   -1.22556159873572   13.16872741821731
H         2.75004068573433   -0.61289082174868   12.03218876052566
C         7.07288709323464    0.73561885094975   16.32616616929587
H         7.33507530421346    1.57793128380319   15.69999611010073
C         7.82820187500120   -0.41807126608221   16.29441799596211
H         8.68388841666647   -0.48791512136110   15.64345588850778
C         7.45636714123730   -1.47742435292237   17.11449238145298
H         8.01893833527760   -2.39788348775667   17.11275723339137
C         6.35504162441402   -1.32893741813141   17.92921717734055
H         6.04567806139358   -2.13564660466171   18.57243528288732
C         5.62805076490032   -0.13460559633567   17.91888227004942
C         4.45763310882028    0.12617392195109   18.73741270245768
C         3.95979590698710   -0.77037066042463   19.68716587857293
H         4.43530020348182   -1.72653468911639   19.84409381075402
C         2.85987918500973   -0.43700255185961   20.44437748892289
H         2.48163652008022   -1.13014961006759   21.18086622740786
C         2.22601447171201    0.79177409980937   20.27052798363849
C         2.72706444860974    1.67588740456658   19.32184134751330
H         2.22343885815246    2.62734641160763   19.20384054526644
C         3.83567478930519    1.37696014555353   18.54191873158261
C         1.03003428160488    1.14047245059034   21.09761048891157
H         0.19620147646793    0.48869646985667   20.83871449402209
H         0.72432452822737    2.17118599311014   20.93590073845116
H         1.24137136723742    0.99628837329312   22.15618541402974
C         5.73919673312736    3.12407498523791   18.82611962904826
C         6.27876392107078    3.04344176231636   21.33134920600540
C         7.42993403801849    3.97229400314364   21.71822202115108
H         8.33860397271063    3.69658727266588   21.18792153516097
H         7.61562836017657    3.89967215915365   22.78578726746481
H         7.18736596977230    5.00501049851219   21.47800397676479
C         4.97854198401377    3.44156648627766   22.03575392698983
H         4.73131384408682    4.48013691227472   21.82743531826805
H         5.09410417584739    3.32160228117480   23.10897196119809
H         4.15835749336172    2.81139509427032   21.69711665209439
C         6.62378596125513    1.57914380138436   21.61826398193720
H         5.80651157204341    0.93032899906265   21.30893185092744
H         6.79386939320929    1.44673762108682   22.68276937143655
H         7.52399637848442    1.28603583577634   21.08243882791107
C         5.54300314868250    3.46105769788805   15.55009174300932
C         5.63475149888533    4.08026813649048   13.06358970827360
C         4.28218228453541    4.73196296321522   12.76162201296014
H         3.47011656701228    4.05822769755170   13.02849757021336
H         4.21608564683390    4.95941716726072   11.70166503329870
H         4.16845472918013    5.65619951558876   13.32405817883848
C         5.77049037183236    2.74631627364653   12.32367312863410
H         6.73058516762246    2.28303456875870   12.53961504948836
H         5.70005697075593    2.91471020172030   11.25308418113656
H         4.97745312958485    2.06490186560067   12.62580470888151
C         6.79262323195017    5.02213675323621   12.73186551736514
H         6.69832825007612    5.95406398047174   13.28459388195455
H         6.78848024196883    5.24685033278093   11.66937202240458
H         7.74553371170324    4.56293601384034   12.98529186280767

