122
CSD_code = RAKNOH | q = 0 | S = 0 | Stoichiometry = C62H54BIrN2P2 | MND = 6
Ir       16.30622144821409    3.70295871794156    4.07421409444618
N        14.54275747267131    4.71273768435344    4.23784219189182
N        18.09986746648301    2.78882668383555    3.68657250405120
B        15.87680783965745    2.33714324315524    8.02842932900551
P        14.99101262633184    1.94176515281901    5.15795545840177
P        17.39396586089074    4.19768955491295    6.20027851775251
C        14.13232394037660    5.36881853177018    5.32298225795162
H        14.80506343070800    5.37713064032929    6.16957878345728
C        12.92155838269643    6.02648706929287    5.39928659474264
H        12.64669384171627    6.54206770427584    6.30532971779004
C        12.08222619263027    6.00454870881974    4.29301053807755
H        11.12782646895050    6.50817961732228    4.31312347095463
C        12.49367201009234    5.32103435296456    3.16863625976451
H        11.86071434602589    5.27811296479434    2.29802728722359
C        13.72991385367424    4.67293415748906    3.15327431747865
C        14.24475669130108    3.90513530445112    2.03583710255857
C        13.56749171183012    3.72341218073790    0.83059780186030
H        12.60331726995850    4.18106694862447    0.66680751012311
C        14.12177542261127    2.94843945141273   -0.16440471404753
H        13.59064137897684    2.80682536863746   -1.09489488011738
C        15.36406990197423    2.34942358372689    0.01692379508162
C        16.03619920094996    2.54354633423143    1.21806779964821
H        17.00859372340202    2.07949142565415    1.33184350524316
C        15.50329147136107    3.30519060717891    2.24914660543759
C        15.97045574768414    1.49325962283119   -1.05278635665108
H        15.89114799905312    0.44038295747569   -0.77940005075823
H        17.02660482875682    1.72575372733997   -1.17708592879804
H        15.46326103638352    1.63725343831094   -2.00359070470831
C        18.46189610354165    1.57827392688087    4.10895692506161
H        17.73418974562908    1.02620556325475    4.68675992182230
C        19.69129067756624    1.01287650698496    3.83977334170158
H        19.91979514550722    0.02511439720156    4.20594829848661
C        20.60977188104188    1.74259002599835    3.09714188489018
H        21.58115763048930    1.33480425236306    2.86281132218064
C        20.25585145672841    3.00585263431320    2.67495633253213
H        20.95294239857408    3.60344023372406    2.11166883471070
C        18.99572098025968    3.52317156386917    2.98064234201335
C        18.54528842495709    4.85284576090036    2.61903401827504
C        19.31347142799419    5.77275589796229    1.90309471503422
H        20.30160071699964    5.51109224468900    1.55508409631978
C        18.81813545833618    7.02866494844955    1.63720366328167
H        19.41667158103595    7.74042601100729    1.08674871618471
C        17.54382932776771    7.39196658914337    2.06767603892255
C        16.78303089788753    6.46770705035836    2.76970570395639
H        15.78857130890429    6.76440224798259    3.08051735055364
C        17.25538343783411    5.19528154498178    3.07164749798835
C        17.01908461787838    8.76654214445710    1.78608973115859
H        17.50263653095641    9.49222417977505    2.44117822686207
H        15.94578520962131    8.81663090849372    1.95312641943357
H        17.23002226385248    9.05541732438989    0.75815843625891
C        13.30571241831667    1.87347656243056    4.41518044024583
C        12.20529783561779    2.47139985609944    5.02014629617108
H        12.29960267948422    2.94411468376847    5.98616324692235
C        10.97006632004857    2.47346633472371    4.39685052472554
H        10.12776521331740    2.94360331266417    4.88444343354492
C        10.81157870825069    1.88023681401878    3.15733360170590
H         9.84704552959874    1.88490696480570    2.67107837018684
C        11.89855740914204    1.27673560910324    2.54761318057063
H        11.78764162077626    0.80968730328978    1.57985825619159
C        13.13201061864882    1.27679543234903    3.16902905032404
H        13.97029705337965    0.80944144545204    2.67590387816169
C        15.92100664535028   -0.32131011882824    3.83057929669696
H        16.16184157920103    0.37502049339431    3.03726912430445
C        16.18224196820579   -1.66880873740946    3.66729726032997
H        16.61822381331967   -2.02501580122170    2.74441906097568
C        15.89086024678268   -2.55897203477137    4.68832391897702
H        16.10276872128028   -3.61111198733437    4.56542780944593
C        15.32740212379774   -2.09486392956514    5.86439612975636
H        15.09873528345096   -2.78176217999508    6.66564075427400
C        15.05496662599623   -0.74781071476094    6.02687756523103
H        14.62062333298567   -0.40292981921540    6.95017423385154
C        15.35841285676794    0.15334448566772    5.01458271907573
C        19.19728971368490    4.43966797019635    5.92642559545399
C        20.13583943991500    3.44775624324395    6.18664931378143
H        19.83123954041697    2.50939525589531    6.62569002330180
C        21.47167168417486    3.64701049287296    5.88623994083234
H        22.18860039357408    2.86565974622182    6.09515319744417
C        21.88990434135032    4.83768946531017    5.31921010710875
H        22.93299251730011    4.98954955379425    5.08312240726188
C        20.96385114502059    5.83524631287075    5.06235107206129
H        21.28091483209270    6.76987084932767    4.62291925161727
C        19.63020719618072    5.63670439445482    5.36096108178128
H        18.91441429635600    6.41872544409899    5.15364160235576
C        17.15479112476907    5.72818896683365    7.17719493562205
C        16.72815489353660    6.88394354026614    6.52868345579143
H        16.51164770295260    6.85246073156061    5.46872096428641
C        16.58262089028175    8.06778347432076    7.22837358796270
H        16.24538154441569    8.95777685341647    6.71581201489376
C        16.86740739592655    8.11025376381036    8.58284643615872
H        16.74509863180109    9.03184150614773    9.13299154367811
C        17.31647898313595    6.97018167077612    9.22757189164677
H        17.54842911655490    6.99941040142525   10.28163891369423
C        17.46669866684069    5.78619634882590    8.52929515823714
H        17.81319972627238    4.90562054368803    9.04474479380761
C        14.64992214557163    2.29610674702090    6.90589998565900
H        14.21282366892999    3.29765428369466    6.84717304709785
H        13.84912731202169    1.62375054409836    7.23247653709878
C        17.31833329477064    2.78748807960226    7.33885920350966
H        17.65073907510503    1.95798018485666    6.70280758003745
H        18.07697397009053    2.93065919101914    8.11519913867795
C        15.54918063712426    3.37639999267753    9.23707280490159
C        16.26740306794021    3.23904314754631   10.42852858625905
H        16.97561941914748    2.42507699710548   10.51614229576301
C        16.10381624703572    4.09789577968701   11.49834377147473
H        16.68075305374834    3.95297706907968   12.40274191350828
C        15.20098462315136    5.14476805406246   11.41614044217855
H        15.06661001123705    5.82245165822419   12.24832237828758
C        14.46920264533144    5.30575598172949   10.25512918408670
H        13.75636110142738    6.11704231632909   10.17426301742355
C        14.64495677963192    4.43430380571928    9.19353506683147
H        14.04177191434887    4.60281749717920    8.30979103636677
C        16.00537450996551    0.84980587268698    8.67268479311003
C        17.05706893065453   -0.04083083421180    8.47227941119202
H        17.90523956547254    0.24744643727214    7.86495803061108
C        17.06745357605469   -1.30933752036441    9.02807573555546
H        17.90408768317295   -1.97162345567003    8.84393662626731
C        16.01395724721963   -1.73350202136518    9.81610816333422
H        16.01738970370268   -2.72387580862110   10.25109688548097
C        14.95736645981358   -0.86820816248908   10.04626251833908
H        14.12878921230806   -1.18205294269833   10.66793267399542
C        14.96242615716706    0.39401382344417    9.48403266371172
H        14.13141681885464    1.05901408648988    9.68245444330678

