71
CSD_code = RAKPUR | q = 0 | S = 0 | Stoichiometry = C26H36BN6NbO | MND = 7
C         8.04961677132973    1.79155566032219   17.65077450420657
H         8.49675044891070    0.85712604005868   17.27880697350328
C         9.08463890282100    2.61731978718644   18.37528469019387
H        10.11185089502163    2.26986591903912   18.38897204529901
H         8.99763152823399    3.69582725028109   18.36410085553766
C         8.07936132513593    1.84196902754979   19.16250463913424
H         7.30196454736585    2.39707887992211   19.67320332086135
H         8.42484196257102    0.97501987236526   19.71408217859307
C         6.60576839379160    4.60121968834930   16.09398682280858
C         6.52479792417773    4.46026364733389   17.39194899222079
C         6.54740321213180    5.40086333592520   18.55373745081843
H         7.05820202366902    6.33001659429445   18.28771431728903
H         7.04136685917603    4.95951850922428   19.41829439452963
H         5.52232181993764    5.64202825093436   18.83992621398021
C         6.76809618375261    5.72712881695269   15.12912051703909
H         7.08437463983559    6.64128129189192   15.63933762384119
H         5.81793234611686    5.92101732732566   14.62777295548861
H         7.50101422289023    5.47908230433209   14.35993074920870
C         4.51006133309798    2.33481536636826   17.73283029474938
C         3.95889466995916    2.71521829811892   18.93579331959765
H         4.43202508743186    3.32821619325208   19.68161807378321
C         2.66287198709124    2.15317888941301   19.02419538318201
H         1.96247239560943    2.25078584849445   19.83006567211440
C         2.48593802792445    1.46231773618041   17.86627276195838
H         1.65997644288311    0.88653457707226   17.49259981493059
C         9.69742026323372    3.44899806648551   15.12317255615638
H         9.08906336318512    4.01660518499918   15.82597573425232
H        10.32871742781189    4.12358997540444   14.54812790237988
H        10.34295162214586    2.78234651979122   15.69495603311097
C         8.83398539995030    2.65771825037415   14.20525554212090
C         9.12660985090217    2.26608658614605   12.89570767782051
H        10.01121336896152    2.48738322854746   12.33302173577063
C         8.03168905227056    1.53290926068335   12.47685765904084
C         7.81724891811129    0.88656693668821   11.15513162138754
H         7.69183659951477   -0.18928374179467   11.26473831251786
H         8.67750696772157    1.07617302603153   10.51841753823165
H         6.92693598370366    1.28343801972303   10.67054009747299
C         5.89125093220949   -0.64842866481178   18.32186810650193
H         6.91323055499938   -0.91296722778671   18.59456315524044
H         5.21946271867476   -1.36605542924651   18.78947507474528
H         5.68129801888120    0.34995844845310   18.70428814237062
C         5.72492839237428   -0.70494490497586   16.84373309975652
C         5.36497647064611   -1.82747448502284   16.09511473869561
H         5.13972343514616   -2.80835948629479   16.46295020379310
C         5.35323574377383   -1.40547762973617   14.77865665739415
C         5.02602213795923   -2.21142736914460   13.57264026818951
H         4.15504959788757   -1.80591033847471   13.06068633246116
H         4.81059325654737   -3.23371554829874   13.87286105532024
H         5.85847626139176   -2.21884420278284   12.87136579060658
C         3.17125437782140    4.53857630549442   15.52696095700854
H         2.32079682874021    4.18985250076184   16.11486857930853
H         2.87033898936207    5.44999551852799   15.01169132564652
H         3.99695750450206    4.75298740009422   16.20714284224161
C         3.56395338588518    3.49532930133698   14.53842785564133
C         2.88745419464403    3.13279742457593   13.36812022359043
H         1.98524876476135    3.56101330036223   12.97968995453522
C         3.62684983300449    2.10100707994062   12.81987337634754
C         3.36107250110581    1.34389396172603   11.56796124216115
H         4.20215916919015    1.42259882393830   10.88132426138066
H         2.47413585470620    1.74566379305079   11.08494774921320
H         3.19664697638974    0.28866279809078   11.78007310528779
N         7.63767385677138    2.18629830475478   14.54391945120991
N         7.15136517975690    1.50052894510883   13.49695648062702
N         5.92079004033148    0.32432130216356   16.02198944159834
N         5.69401477326963   -0.10256823058617   14.76556385807934
N         4.64127363373442    2.73062866613067   14.66878366361764
N         4.67895302977187    1.88122885668519   13.63382827698666
O         3.58018729532725    1.56039310431176   17.09028316380870
Nb        6.28557707287320    2.53353835436733   16.47875681463698
B         5.77835092401131    0.81211221354511   13.52884014585383
H         5.62864552517048    0.17310668848337   12.54931763100181

