82
CSD_code = RAKRON | q = 0 | S = 0 | Stoichiometry = C33H44FOP2Rh | MND = 4
Rh       12.33378352647891    2.30873283762635   11.86190872598730
P        14.46341742052515    2.72550629775232   12.35075512628456
P        10.26825718449921    1.48482925790696   11.81700378065899
F        12.28758200551432    4.59350735071190    7.04679885206288
O        12.65785478961542    0.60787132768831   13.26532138119788
C        12.04386259580931    3.82311703755658   10.60375164539937
C        12.26872801278827    3.69265305361402    9.22857280655043
H        12.61160544863660    2.75874386427690    8.79829635942187
C        12.05638661460478    4.76074982862955    8.38073318993428
C        11.61942988061821    5.99111532442609    8.82947722119045
H        11.46480632869719    6.80196278108164    8.13512124766271
C        11.39278672419000    6.13252493337670   10.18861251237589
H        11.04963652576137    7.08408568238819   10.57204428493207
C        11.60084951822212    5.07250817641699   11.05239440946811
H        11.41117431781568    5.22474377908282   12.10970097854988
C        14.91306181108999    1.30526095929826   13.43548751627670
C        16.20084422179752    1.09790533664684   13.90674333279450
H        16.99221912376486    1.76828623105676   13.61270078967082
C        16.48408335154195    0.03512389295525   14.74322748820635
H        17.48645271084429   -0.11216924809719   15.11610615971937
C        15.47822235780384   -0.84155374174413   15.09797102369111
H        15.71074335784288   -1.66420716602035   15.75608476050559
C        14.18267383674212   -0.69356626221653   14.61668895794491
C        13.90466090628759    0.38925643782001   13.78631547640360
C        13.12084449833655   -1.70490981088974   14.99922196479266
C        12.90435984682254   -1.64905853797878   16.52145055348451
H        12.57011498860306   -0.65557938267271   16.81584911177925
H        13.82763503634881   -1.87074504725166   17.04997586980366
H        12.15147435588409   -2.36945155250620   16.82987625193216
C        13.59498886355954   -3.10651619001100   14.57578134890643
H        12.86131228248711   -3.86193077906821   14.84184572031343
H        14.53250877552914   -3.36271422382427   15.06070275475378
H        13.74565752383227   -3.13845065142092   13.49811939876066
C        11.80798018421681   -1.40245340894927   14.30532499975647
C        11.64447817236051   -0.28408387929886   13.49185582524839
C        10.41734052489602   -0.03253183306054   12.85168119218030
C         9.37729885001201   -0.93496630203801   13.01688214137236
H         8.44496497318677   -0.77689899521553   12.49920803378655
C         9.52519326489396   -2.04129412383341   13.83151375100951
H         8.70694487165383   -2.73288021348448   13.96437776961066
C        10.72737317870695   -2.26024887527519   14.47415941495279
H        10.82802730285380   -3.12365337456153   15.11316644726207
C        15.85521801091054    2.70944484266478   11.11650897078323
H        16.83158049018748    2.65480850238759   11.60951743027104
C        15.77721044128840    3.97077177239230   10.26346684342484
H        16.47821822736049    3.91101931873627    9.43209566738483
H        16.01587642623230    4.85751285501991   10.84722185484260
H        14.77184143969936    4.08628401561274    9.86121251921760
C        15.63975185700749    1.45849773926127   10.26853695724625
H        14.61509020308418    1.45151436947808    9.88978292536249
H        15.79281465021027    0.55766931809724   10.86311388299412
H        16.32389103605466    1.43546793026748    9.42209289257987
C        14.78463486767872    4.20945262296770   13.44083056970365
H        14.53983169720666    5.05456821866423   12.78347984461076
C        16.18245167282434    4.41027294646915   14.01050313368610
H        16.23355153684398    5.37906978793778   14.50699402509379
H        16.94050000245978    4.39469518198476   13.23066215263664
H        16.41440369486906    3.64574284931933   14.74872639998797
C        13.73853041453005    4.15282404600091   14.55164197237053
H        13.96952938995771    3.35125824111282   15.25361897195890
H        12.75578548971914    3.95800641388362   14.11191101619506
H        13.69598166128076    5.09153988817188   15.10110934497948
C         9.42880028338117    0.82341439690726   10.29453235387286
H         8.55157696046210    0.21842693504248   10.54710061347024
C        10.46914298952708   -0.04912349682743    9.59696889805985
H        10.12113785174695   -0.36564425820936    8.61529678467515
H        10.68926579395023   -0.93684489044544   10.19014199866244
H        11.39303331235339    0.52064044285715    9.47301137572510
C         9.01218448870640    1.99322219332796    9.40980903805180
H         9.86090041550199    2.65514278926741    9.24410665638808
H         8.21284276364712    2.57084513541056    9.86964964759739
H         8.66036978415682    1.63267750443012    8.44420580399526
C         8.96084827709548    2.47566677999126   12.71327972202747
H         8.86076554383684    3.37315276564853   12.08821055072320
C         9.58172483748506    2.89025503637412   14.04526259995451
H         8.98778591521977    3.66050278906897   14.53403141741431
H        10.58808084027508    3.28149928082475   13.86905309298909
H         9.65561294481719    2.03349807985589   14.71540607465070
C         7.58534732863768    1.85492998765863   12.91700045119674
H         7.63410527908137    1.02455908882500   13.61797988123232
H         7.15916093127954    1.50540545660842   11.97937257333261
H         6.91030018373751    2.60263233205205   13.33284251405337

