58
CSD_code = RAKTAZ | q = 1 | S = 0 | Stoichiometry = C13H36NO3P4W(1+) | MND = 6
W         4.56005103845417   13.54900823568666   21.28541512187107
P         6.18843990683989   13.41234768683568   19.42067464107662
P         3.27666251756900   15.33679824087684   20.14709975105250
P         2.98121779711170   13.40179558969338   23.18888173998500
P         2.75381511207532   10.70019442573880   19.77214691792216
N         5.55693493529922   14.70663929144545   22.18240232159409
O         6.21790485585291   15.48732475206449   22.76936678872815
C         5.52352301377514   12.02804591224828   22.08686025218270
O         6.09631852226753   11.15239865883543   22.56141893350580
C         7.50037169848206   14.67773324206398   19.50565668958346
H         7.95580268131144   14.62568834627179   20.49467029289102
H         7.08552429164293   15.67389619878634   19.37205079879957
H         8.25734545111861   14.49058838339003   18.74418826270246
C         5.71577479206000   13.43605702328265   17.64581232378040
H         5.02074152527788   12.61952619450959   17.45423125988926
H         6.60192435100581   13.31018625850216   17.02400526079504
H         5.23011191038629   14.37484575530932   17.38890056148167
C         7.21393707518064   11.89527197876953   19.45219762529663
H         7.77219612619168   11.87213341388435   20.38700857415691
H         7.91231534294743   11.88414872015715   18.61522842838746
H         6.57894709302843   11.01147733764985   19.40641094995185
C         2.18499944349370   14.83284015247382   18.76452352650223
H         1.36907360636797   14.22959133337400   19.16116827048840
H         2.74582214129669   14.22685422662838   18.05534203845598
H         1.77846567716971   15.70920685574426   18.26008685258204
C         4.29544990901491   16.64303950626820   19.36596576267219
H         4.94199331882351   17.07724455383532   20.12860834916638
H         3.65810161483525   17.42247632167460   18.94841509751272
H         4.91585807507942   16.22594569149329   18.57624680168048
C         2.13604796790149   16.42739508776816   21.08097506583632
H         1.36004455247991   15.84553865671692   21.57407191219470
H         1.66889564627181   17.14159706907190   20.40274865840447
H         2.70855456515484   16.97182399396923   21.83058596256523
C         3.43741601751071   12.14026126754851   24.43369325367032
H         4.42319262994185   12.38899392131997   24.82541069870427
H         3.48700671245630   11.15199343291683   23.98034875893809
H         2.71570379343912   12.12873424200059   25.25071601412931
C         2.91433044916066   14.87177075562097   24.27124502079651
H         3.93642911594748   15.16683047943240   24.50858598757830
H         2.38325998337395   14.63185530583455   25.19229225988103
H         2.41824308874856   15.70004343000975   23.77351037182343
C         1.20406188376343   13.00866375468012   22.94509623651068
H         1.11608705357560   12.00363586302541   22.53414812040713
H         0.75453612328106   13.70912364812167   22.24393911217027
H         0.67439560665833   13.05659061307345   23.89616363434654
C         3.55214038354187    9.96603116814723   18.30382548231145
H         3.32835142568438   10.58120456689161   17.43407596839950
H         3.18459535567784    8.95878161678949   18.13393382973793
H         4.62981172238892    9.93586888714450   18.45203355650182
C         3.09181149655611    9.57717851381356   21.17054046800923
H         2.54433950570460    9.92081568658418   22.04667876551002
H         4.15857633520090    9.59595765402904   21.39016387429395
H         2.78933463723767    8.56217479108949   20.93233596747562
C         0.95907810776705   10.66113163150391   19.44770210941847
H         0.75271140321125   11.26166151275188   18.56363561586585
H         0.42458336511113   11.08747521979064   20.29392100513504
H         0.62010515792828    9.64367584532697   19.28011179329601
O         3.21603209024496   12.09748709752433   20.02042630111060

