91
CSD_code = RAKTAB | q = 0 | S = 0 | Stoichiometry = C36H44BrF6N2PPd | MND = 4
Pd        5.83896045307318    4.96716228276667    3.44372495901614
Br        6.06805192611076    2.63329990834746    4.01380548699973
P         5.38006628208803    7.16484207505062    2.89864459652107
C         4.94227404885505    8.35529827845054    4.27384083837171
C         3.89378090545227    7.70612295934282    5.18153758764468
C         3.64518025807252    8.55955169203663    6.42164200133342
C         3.20535346786044    9.96241040473529    6.01677662655085
C         4.25843540305780   10.60389106462250    5.11929016375084
C         4.49322035036250    9.75773410250396    3.86723152106937
H         5.25403438630023   10.24296701600316    3.25446650911713
H         3.56310036354328    9.71406121676315    3.29898909316512
H         3.93777934252102   11.60543075908015    4.82509941537042
H         5.19596924295914   10.70350524333877    5.67206022888092
H         3.05001294526358   10.57659853471477    6.90552299210725
H         2.25558346673689    9.90423096793385    5.48074078872473
H         4.56043813949742    8.63032031811437    7.01551024118571
H         2.87925416458048    8.09105341287647    7.04207695285322
H         4.24227452397762    6.71083240281789    5.47065332164847
H         2.95087545212922    7.58488635948453    4.64486772795202
H         5.87595149909875    8.45007870133535    4.84029741861997
C         7.00069245936416    7.73767374879009    2.29324744939401
C         7.17968296952930    8.97268609982497    1.67293858604127
C         8.41201006221668    9.35323082506051    1.18091589551166
C         9.49226045735896    8.49343172768541    1.30000256727396
C         9.32838103338982    7.26590266601308    1.90878625956057
C         8.08788111660007    6.86469208213246    2.40959278524512
C         8.08314913796448    5.53845815051851    3.09428714578624
C         8.00466563558969    5.46267381106775    4.50935084930675
N         7.41271512659469    6.55761558757661    5.23449819356922
C         6.70699537392389    6.10350189340957    6.43114312217946
H         6.09848641169717    6.92351146995943    6.80977889810695
H         7.38199989739571    5.79369345059997    7.23966903385746
H         6.05650986451211    5.25664241721018    6.16336203865732
C         8.40166963147419    7.57181077546427    5.56693315088533
H         7.90881416697440    8.40483302578158    6.06925791552272
H         9.18596276747307    7.18151258706041    6.23095634173426
H         8.86912596365277    7.94000164171457    4.65455586046497
C         8.63346799638201    4.41349475453761    5.18636919749004
C         9.30618051670020    3.42873330588956    4.49387876094001
C         9.31734278615640    3.42480657088736    3.11140638327386
C         8.68989441690316    4.44058917887549    2.39727672486037
N         8.68760810180964    4.47545908862533    1.01214109676045
C         7.42250830916114    4.71095326304287    0.34849558442175
H         7.15014863645868    3.84356754408324   -0.26175842281563
H         7.47857086345595    5.58975901940255   -0.29979552475504
H         6.62571031969129    4.86351904362788    1.09843381385064
C         9.57041105127592    3.60160739698521    0.27636546071455
H         9.63131147213380    3.97098419194729   -0.74784093187839
H        10.56752235527543    3.63335593620812    0.71198492139635
H         9.22033954957374    2.56196905645832    0.25141062507663
H         9.79559472182244    2.61143444714275    2.59285655096613
H         9.79783095067776    2.63614583963168    5.03529985894337
H         8.60484356040527    4.37151345919551    6.26338014125633
H        10.17173920849322    6.59814143855688    2.00709289942222
H        10.46043921245229    8.78037421003033    0.91817699052141
H         8.52926159094731   10.31316741951169    0.70070289625019
H         6.34168516589163    9.64171319010049    1.55302714205792
C         4.25862375003580    7.65610891905032    1.48663621567282
C         4.70136334647776    6.95144038338685    0.20502304918022
C         3.83819337947536    7.37979389074703   -0.97822969264332
C         2.36896934365979    7.08027866014706   -0.70299075929979
C         1.92181210639413    7.78164393470638    0.57418796579716
C         2.78523440373156    7.35334818492497    1.75935893457768
H         2.44152838306020    7.87513952236042    2.65335388107731
H         2.65674605332268    6.28360613418705    1.92878870282492
H         1.99909124135396    8.86390051512518    0.43940622617574
H         0.87765230928045    7.54401111271691    0.78416290125666
H         1.75646580152878    7.41109191502507   -1.54313030155929
H         2.23011939277497    6.00343716894072   -0.59426976696187
H         3.96534586154323    8.45134210253847   -1.15257305906890
H         4.16472148491100    6.85335855197301   -1.87675753456705
H         5.74864910555394    7.18512425606024   -0.00339197704454
H         4.60588858161610    5.87111474673486    0.33969939094961
H         4.37371154755456    8.73794247637074    1.34707496036142
C         3.97212595485352    4.38955140308701    3.14039057276084
C         3.65293220013118    3.83670965539718    1.90091872665462
C         2.34646927960607    3.47436549888260    1.60862235708024
C         1.33000483887359    3.63945492606078    2.54148188226454
C         1.66535804447714    4.13357398913874    3.79159239254180
C         2.97267441947864    4.49325808834305    4.09954179949698
H         3.19493583536828    4.83400912706013    5.10416120319795
C         0.60096933960010    4.36759633384350    4.82422235034339
F         0.99284489318304    4.04616007557951    6.06545051096476
F        -0.53362692669743    3.69996689402127    4.58968728083983
F         0.26063874214684    5.67812962918574    4.87892250772917
H         0.31270232448516    3.37269051813607    2.30200986081325
C         1.99192329770428    2.90708912785046    0.26376574449724
F         2.99772914396472    2.98468681967471   -0.62224985538211
F         1.62990523127592    1.61694030085559    0.32006189857670
F         0.95497151487432    3.56141984801958   -0.29792287632945
H         4.42881629152393    3.65617727498939    1.16113577447815

