143
CSD_code = RAKWAE | q = 0 | S = 0 | Stoichiometry = C64H65O10P3Ru | MND = 6
Ru        3.48781953519773    4.65825663044886   11.32365533885468
H         3.19402846308923    5.89133507537433   12.25492943316912
H         3.25024677270782    5.51116434223052   10.07024326612746
C         3.83701301240639    3.29786811134809   10.13586158172628
O         4.06009565701592    2.49004252655552    9.33944830201852
P         1.18530149668842    4.68028346165836   11.39136553821699
C         0.42408062925391    6.19939424077642   10.69831781769056
C        -0.95012561495055    6.24000481351184   10.45715657734131
H        -1.55961588730315    5.37199537942262   10.66464713065195
C        -1.54025851809185    7.37587001993023    9.95045767622623
H        -2.60086362958713    7.41270008554138    9.75505162985332
C        -0.77502764917965    8.51107446602336    9.66966327978335
C         0.59116034966286    8.48208854744805    9.92361961608987
H         1.21793819089434    9.33748531988602    9.72401867074919
C         1.17455249946877    7.33608164481847   10.43426819745661
H         2.23802872339315    7.32859133584378   10.62773374917672
O        -1.45297483408917    9.57754484981125    9.16161027578765
C        -0.72600458610242   10.73821422489580    8.83842746087691
H        -0.25762262877825   11.17865223686817    9.72488681920954
H        -1.45381620464944   11.43845840083103    8.43108685628312
H         0.04329228296953   10.53567614207208    8.08671242189447
C         0.18986680670335    3.45023236602488   10.47562471614147
C        -0.97569176200068    2.83463374341977   10.92335198355399
H        -1.37874309984518    3.06692839185925   11.89807831907342
C        -1.63171819194911    1.92489040940327   10.12223151895934
H        -2.53120954912203    1.43452488464145   10.46124149624262
C        -1.15052439657697    1.61444951655561    8.84901571175438
C        -0.00118058657471    2.24832987438676    8.38565171472085
H         0.39201981128855    2.04432494167961    7.40196088689604
C         0.65314367918322    3.15310105450927    9.19913974248414
H         1.54952259129052    3.64927501650732    8.84373054394302
O        -1.87206549518963    0.69581560242899    8.15004472337646
C        -1.44066668993444    0.34501208325891    6.85764951645801
H        -1.44634175895477    1.20795042940604    6.18382940720072
H        -2.15430905680748   -0.39546092826103    6.49953291324048
H        -0.43903057360657   -0.09652867217087    6.87380407930566
C         0.42098279618985    4.71060992577784   13.05060574612236
C         0.21512714553203    3.54646273442678   13.79099900040431
H         0.37854446392774    2.58257280289216   13.33486022747478
C        -0.19403903452736    3.61148256685374   15.10441576647690
H        -0.34841827612394    2.71301872810230   15.68158422209872
C        -0.40801562392959    4.84416850190621   15.72298620998333
C        -0.21395966262086    6.00956860771500   14.99013098682845
H        -0.37494616603409    6.98099405615117   15.43252934533358
C         0.20483083908747    5.93524142314186   13.67311617297499
H         0.37833259287736    6.84927144729996   13.12164353807457
O        -0.79250798195503    4.79729735546740   17.03153407221863
C        -1.05826283606568    6.00739575550407   17.69548577695882
H        -0.17001047272307    6.64701556109642   17.74497883454696
H        -1.35780528249192    5.73183958462294   18.70576699265477
H        -1.87275887672708    6.56017945680948   17.21623020487095
P         3.90203904603263    3.17317537207889   13.03964315069621
C         2.78812758996582    1.72063732806483   13.18778954620800
C         2.58891908340828    1.03967451102953   14.38158209750650
H         3.08580567290161    1.36572389121361   15.28283268992344
C         1.74063001195528   -0.05224678904313   14.44973670067562
H         1.60781105817735   -0.54731767690543   15.39940279352683
C         1.07294456182734   -0.49454377082741   13.31247374405344
C         1.27495436291811    0.17958253725264   12.10614949777660
H         0.74929825150538   -0.16155354547416   11.22787751769897
C         2.11624311171383    1.26785682551994   12.05173707466983
H         2.23948240627132    1.79057028163402   11.11301859454911
O         0.21436384452429   -1.54867097510830   13.26915450897385
C        -0.04052534392926   -2.25968553954421   14.45570260599808
H         0.87021836866768   -2.71943802610127   14.85340344317751
H        -0.74843370715337   -3.04130862855157   14.18439605995584
H        -0.48759246526649   -1.61752220026391   15.22158111600984
C         4.01908837477275    3.64457097919622   14.80335698478987
C         4.84361839354782    3.01886789309857   15.73854912268315
H         5.48216286229144    2.19942235415124   15.44076138631795
C         4.85198818846523    3.43685353994841   17.05115688329796
H         5.49191454852048    2.96334705710462   17.78051176675764
C         4.02244911098058    4.47750111036653   17.47480163976934
C         3.18402871917727    5.09160581628209   16.55215054738737
H         2.52499896092784    5.89541986804946   16.84190208272447
C         3.19544143771766    4.67528850798961   15.23387999159598
H         2.55536626103529    5.16841680294422   14.51568271325958
O         4.11829885499932    4.81564407802506   18.79328171189433
C         3.23205506361226    5.78328992260027   19.29949411428673
H         3.39832603781653    6.76334935058348   18.83908038507298
H         3.44323744678565    5.84872251814263   20.36574118633195
H         2.18891100141244    5.48479062025379   19.15377866316571
C         5.47654266190934    2.27523548557968   12.79438093607660
C         6.67751126591724    2.80186965602157   13.27033720667477
H         6.66427082140651    3.67459972106081   13.90522847481332
C         7.88060567310766    2.21742836908561   12.94708211260463
H         8.80996288330116    2.62544067757007   13.31242937029930
C         7.92343856448254    1.08751296811637   12.12767025946093
C         6.72996969350058    0.54830688369621   11.65967291619554
H         6.72235342069990   -0.32791697214638   11.02996319398846
C         5.52408502899108    1.14256873027683   11.99002231623997
H         4.60801648012847    0.71348432991259   11.60760808726647
O         9.16376252018970    0.59671475057446   11.85620535123979
C         9.27387077124939   -0.51681788703235   11.00425904575244
H         8.77800340292875   -1.39773482754628   11.42559485585540
H        10.34082566904109   -0.71456725724828   10.91348642949358
H         8.86018527467409   -0.30773084906534   10.01250774444546
P         5.54291187099785    5.69982075273017   11.24616923760680
C         6.48457829281729    5.98132854853150   12.78893900541391
C         7.86790423441660    5.84768915530898   12.89282820829477
H         8.46006684436959    5.63144864941657   12.01641738319828
C         8.48863856865376    5.96080831720460   14.11847234674120
H         9.55723925883754    5.84333885908493   14.21162507958200
C         7.74771411660951    6.20460890650587   15.27742687157050
C         6.37178345837785    6.38009387603509   15.17336333710605
H         5.76579493675185    6.58317301296739   16.04249641692650
C         5.75865163727643    6.26507356811165   13.94057554661604
H         4.68613063055894    6.37758772506989   13.86883045426088
O         8.45049275839489    6.24556930098954   16.44185263762495
C         7.73949445748889    6.40355436567642   17.64648354433096
H         7.24104166832536    7.37757598028357   17.69366653256627
H         8.48472159260430    6.34451916144086   18.43820168508279
H         6.99872227854886    5.60933451721184   17.78411886702586
C         6.88602661332353    5.17016943269410   10.12939475630409
C         7.75734900402941    6.07335432883466    9.53147443905769
H         7.63222960826884    7.13387538769848    9.70185787827438
C         8.78792393665267    5.63608339273267    8.71889651630709
H         9.44186786694035    6.36602433718729    8.26697036096688
C         8.97090317700809    4.27414574931005    8.49688613763282
C         8.10435679985611    3.36427823573704    9.10576367966548
H         8.25838461781305    2.31170423316840    8.92750924326227
C         7.07774895035698    3.80924877774739    9.90711527127405
H         6.41129771120922    3.09814320821244   10.37287882799196
O         9.94774331607339    3.73517332649992    7.71777491585401
C        10.84235651762251    4.60097348544402    7.06294990086877
H        10.32041082066173    5.27246640102529    6.37346323526770
H        11.51485924392828    3.95757562989802    6.49761644422461
H        11.42469143320888    5.19329766719892    7.77634491331128
C         5.27795308214439    7.41279796148324   10.66416944917168
C         5.24404482072560    8.50825605521587   11.51167012968326
H         5.51264650302168    8.39512173156278   12.55234085044257
C         4.85793234471921    9.75721215639663   11.04848621017674
H         4.83609602508201   10.58518233335292   11.74051942017106
C         4.49506070700759    9.92415999700701    9.71874079789811
C         4.55382528839917    8.82781612701491    8.85325803814952
H         4.27874950534139    8.97471918915357    7.82029826268467
C         4.93459291441871    7.59307643005959    9.32241564148970
H         4.95634120404053    6.74110129081062    8.65490720436146
O         4.06706520528626   11.09585034682011    9.16334084396128
C         3.97749612065310   12.23331714231587    9.98452481731335
H         3.27348462559501   12.08043571458731   10.80962780867834
H         3.61125416202494   13.03351420565767    9.34279652252413
H         4.95433260981823   12.51560415940598   10.39076569831657

