40
CSD_code = RAKZAF | q = 0 | S = 0 | Stoichiometry = C20H14CrO5 | MND = 9
O         3.85459835971944    3.53662642063490   19.65267171568536
O         0.23083698603051    4.46371047674720   19.33239997165109
O         1.61022783422684    1.34092159911231   17.67605638239011
O         6.12772427070143    5.72304861207275   15.10087790140383
O         5.85198088081831    4.20435314472332   13.47887044243726
Cr        2.29822972310673    4.19792602943187   17.20750549645089
C         3.29757087580096    3.83144809296572   18.68362850060402
C         1.01193861115132    4.39836672842195   18.48444083511511
C         1.87486292460667    2.44082032919829   17.44559334126054
C         4.00636062862004    4.93970920306654   15.94628648213725
C         3.35631970204852    6.07623028792391   16.48126628343960
H         3.94568607990127    6.82756808589768   16.99377305854205
C         1.98996978927205    6.25314238242516   16.28223969009436
H         1.50276997297337    7.15299661931509   16.63913802848629
C         1.25698171559833    5.31870889638406   15.51944231747527
H         0.21230795832748    5.50426050501500   15.30166660975049
C         1.90292660207989    4.21037115959379   14.97408491692026
H         1.36373382358628    3.53188346866547   14.32384032465953
C         3.28372621760341    4.01889215851610   15.18060314389569
H         3.79887896565072    3.20992926227615   14.67666563796485
C         5.51172178524589    4.82824556371581   16.06367332761630
H         5.83230028350182    3.80284981962666   15.82464241471825
C         5.98593932924874    5.20892881684487   17.38005752039174
C         6.39365155989735    5.58820377155457   18.44693560024567
C         6.87297885576103    6.00546439948507   19.71057779332777
C         8.00159439127251    6.82160543459109   19.78998541198803
H         8.50349368157380    7.12564122829625   18.88284927274000
C         8.46812292222887    7.23159235934647   21.02418304236816
H         9.34308593618329    7.86237582538265   21.08434778379619
C         7.81786005453251    6.83482071546674   22.18199827446431
H         8.18664854760504    7.15705906979320   23.14458300126333
C         6.69635751925481    6.02404057887235   22.10429902574907
H         6.19070824478066    5.71396433243448   23.00665564021922
C         6.21903534879182    5.60691928905822   20.87630629700873
H         5.34972296363318    4.97182953226307   20.80705626568881
C         6.23883872976748    5.28262339677178   13.84652369617643
C         6.89403393039176    6.31655397054603   12.97154204730553
H         7.40582849053216    7.05564101209735   13.57964932895083
H         6.12595223697502    6.80753406930836   12.37634888406111
H         7.58739326702098    5.82749335215206   12.29283429154180

