95
CSD_code = RALBEN | q = 0 | S = 0 | Stoichiometry = C50H38N2O2P2Ru | MND = 6
Ru        3.95292430047351    2.16836786247173   11.20849073506028
P         3.94681279072534    0.99233885936223   13.12337911482981
P         3.85453462508377    4.25653021372412   12.04027818765196
O         4.04294750907743    3.03898310047349    9.32419348572523
O         4.02421513530133    0.34423059940240   10.23819809137914
N         5.97823599352949    1.97130181152025   11.31650694480515
N         1.93302955619051    2.37194644737750   11.00045028887755
C         5.10598277799632    3.52478900539030    8.82967768128122
C         5.00669709613709    4.18749249391589    7.56922143475186
H         4.04033735965808    4.15887153490102    7.08659869033007
C         6.05446223241376    4.85611672279822    7.01178225188381
H         5.93078164031786    5.36332789416621    6.06523495350591
C         7.29664622694613    4.89824927636409    7.66234096343138
H         8.11844786737309    5.44361035653189    7.22380167002905
C         7.45553771211006    4.22556242386738    8.83849054693287
H         8.42051127155461    4.22820062261788    9.32919488248490
C         6.40605504737060    3.49897066276255    9.44936302809546
C         6.75091175824946    2.72598437973552   10.58126660092505
H         7.81252694195213    2.77378151971032   10.83628692622914
C         6.53124415025451    1.09776794867208   12.24777380121320
C         7.86406477019775    0.66584836637760   12.21182170292552
H         8.52269280289364    0.98790163734683   11.41930586387395
C         8.34966112753832   -0.21942553593463   13.15443828569454
H         9.38152493680701   -0.53477405902766   13.09904349796251
C         7.52579374164858   -0.72875208888069   14.14605625899334
H         7.91047800771176   -1.43465994642715   14.86645898461054
C         6.19469177497779   -0.35367718469155   14.17529663379278
H         5.51881323472359   -0.78907554371849   14.89929434522156
C         5.70130957578655    0.55809014607182   13.25207116818535
C         3.16102789873303   -0.65229122787248   13.11794957052667
C         3.77549820275213   -1.67208941993364   12.39304231009810
H         4.74446911324197   -1.49759422215260   11.94639879499723
C         3.14474347272383   -2.89073421819769   12.23412744488493
H         3.62445193411396   -3.67402754369524   11.66585636428142
C         1.89642571186272   -3.10673770568699   12.79466936414767
H         1.40216214747566   -4.05830203524907   12.66564550416862
C         1.28321008770486   -2.09906373585436   13.51950178140405
H         0.31111786368319   -2.26545164348613   13.96129968449127
C         1.90659748596702   -0.87410280054621   13.67693325463664
H         1.42066217544400   -0.09252161920020   14.24387331936522
C         3.43039148416852    1.67398187852200   14.73220214384710
C         4.21195203977125    1.69817874954570   15.87918621840337
H         5.21946429077426    1.31094286644653   15.85804702657916
C         3.70354761468357    2.23587864506932   17.04905881550280
H         4.31505192994253    2.25103674676316   17.93958412814521
C         2.42022693721998    2.75323295176070   17.08445535406369
H         2.02780439873892    3.16351235874778   18.00327595288907
C         1.64604548670071    2.75950720105373   15.93524935770458
H         0.65160265047983    3.18205628716020   15.95169056546056
C         2.15298295692485    2.23115925142170   14.76419569005387
H         1.56907095520661    2.25732114663363   13.85199946771651
C         3.01805003807721   -0.21594229271685    9.70471769306396
C         3.22430688357186   -1.48410134150977    9.08226049943701
H         4.22814241614914   -1.88200493375672    9.12433277691847
C         2.22409371867305   -2.16132760304203    8.45275692635269
H         2.42388938055325   -3.11874955723162    7.99208080054356
C         0.93199185441214   -1.61899168131766    8.39105180962706
H         0.14333200646797   -2.15607567897341    7.88612893607713
C         0.68940317771243   -0.40752216334898    8.97031331037153
H        -0.30682683610285    0.01377715896174    8.92301554720932
C         1.68665107002647    0.32625923183439    9.65666293205060
C         1.27288211073175    1.55262072660759   10.22689734337332
H         0.24756459680987    1.82017643874428    9.96414646567667
C         1.28712951773253    3.49524730796566   11.51740275593237
C        -0.10472172018472    3.62349953051679   11.62188269627405
H        -0.75361672861608    2.79863823719914   11.36778876477887
C        -0.67745094644252    4.79701134299464   12.07313528234157
H        -1.75344547441212    4.86557500590783   12.14222576643364
C         0.10675753337472    5.88570238299402   12.42127291969086
H        -0.35154554406667    6.81152551669580   12.73445190652732
C         1.48428934531498    5.76225329587876   12.38566210203571
H         2.11816175921370    6.59709735231073   12.65309265678525
C         2.07056104696750    4.56828841815980   11.98920659697865
C         4.51562829015074    5.68551915083856   11.12403626471457
C         3.83863289152248    6.08585099153971    9.97393819579007
H         2.90956716929237    5.59858120433097    9.70850562944360
C         4.35877728349840    7.08343008054180    9.17273464005742
H         3.83063851295537    7.38754088695283    8.28104936312587
C         5.56095050471038    7.68551246952985    9.50596470998819
H         5.97105753922281    8.45996679949835    8.87496425602598
C         6.23854991768665    7.29002426387210   10.64668451811640
H         7.17664655334081    7.75830014433550   10.90756398925605
C         5.72322121140315    6.29167888288240   11.45320263382284
H         6.25651077419878    5.98627808559057   12.34259231896941
C         4.40041617003841    4.60225859246222   13.74645731574467
C         3.63855117587741    5.18685814761855   14.74868377575437
H         2.61554766682803    5.47318948921719   14.55908377246362
C         4.18489007359498    5.38606404920524   16.00504922022178
H         3.58619865180732    5.84255245417889   16.77983513660325
C         5.48709028838041    5.00346490777530   16.27471829074588
H         5.90736280582451    5.16751159282671   17.25596647069230
C         6.24502528666103    4.39506054446699   15.28722565588169
H         7.25610268675926    4.07656827985027   15.49688106651744
C         5.70093553953000    4.18983824477326   14.03465901865041
H         6.27702099740456    3.69520260474563   13.26235813496040

