80
CSD_code = RALJAQ | q = 1 | S = 0 | Stoichiometry = C37H39FeOP2(1+) | MND = 8
Fe        4.19317763983435    0.43227042979221    4.20765699717277
P         3.11593697584136   -1.36687741126902    4.82678843340968
P         2.39160969610697    1.54708117044552    4.65408436182482
C         3.90427642881328   -2.32164728288344    6.16186715315465
C         2.61428174886445   -2.71793083850089    3.70896134280076
C         1.60541354957843    0.61736534890736    6.04765937195628
H         2.24129237938155    0.70393129840478    6.93262577599030
H         0.62010443158229    1.03379052402530    6.28068873180838
C         3.44073515673803   -3.83679744873785    3.60168506396741
H         4.31606089232650   -3.91796490129893    4.23013701370469
C         1.04219940309425    0.74111755756864    2.37739344480025
H         1.92557279404217    0.13903114286131    2.21971900033664
C         2.50649658811601    3.26456994365511    5.21821605158101
C         0.99631610374462    1.57393029187523    3.48759972132949
C         1.48674243466675   -2.63191719285145    2.89570763498370
H         0.83514192180150   -1.77253662354939    2.94681874048444
C         3.13386530809604   -4.85306756745797    2.71593584561136
H         3.77758833309659   -5.71686541783346    2.64895305017602
C         5.69977352418461   -0.50233883822665    3.01626176687644
C         6.23170303779294   -1.89435759110559    2.95848890865133
H         5.50042429959595   -2.57010279867225    2.52407806142493
H         6.50478171159087   -2.26152110742048    3.94511072438244
H         7.12642181179816   -1.91213798752144    2.33418778858839
C         4.63651762200430    1.42728185099063    2.32402276563513
C         2.85701342098063    3.58413607270818    6.52727052392248
H         2.99627396931004    2.80608357474203    7.26197676613528
C         5.20891970818826   -2.03641534045019    6.54242627828263
H         5.73779569657943   -1.24046196212924    6.03824650255661
C         3.21606274622565   -3.35891606786534    6.78932578920201
H         2.21211874711251   -3.60973086748341    6.47371551623196
C        -0.13590060909759    2.34743025996332    3.72971535749236
H        -0.17383296749271    2.99346433562787    4.59599883771465
C         1.18205999996985   -3.65343737513028    2.01350849864642
H         0.29887589977727   -3.57978573169797    1.39715638514447
C         2.84829935007609    5.91964599751168    5.96699169312327
H         2.97847037546397    6.94985130867324    6.25976195644524
C         1.50834281869421   -0.84228264230962    5.61205116389287
H         0.71271401875672   -0.94749498389467    4.86960653869253
H         1.27534081814999   -1.49356208920848    6.45892707519349
C         2.34115973555578    4.28848022839022    4.28520028594056
H         2.06194368109442    4.04341492118533    3.26949805620620
C         2.50698804824419    5.60846080288047    4.66022940430111
H         2.36994180054930    6.39509386779396    3.93370666475282
C        -0.02973029598924    0.68463979528865    1.50347196366464
H         0.00958508006755    0.03694788942563    0.64006406763382
C         5.81607023258921   -2.76038175456715    7.55359898283529
H         6.82920367414538   -2.53151956084407    7.84775939915100
C         3.01953147598350    4.90724899005418    6.89714374912162
H         3.28214794941485    5.14859078191464    7.91574418378407
C         3.82390287262243   -4.07793976448883    7.80065394880531
H         3.28693025987573   -4.87731471840624    8.28814077732082
C         2.00395255382102   -4.76427355487253    1.91885216781562
H         1.76427130137872   -5.55776567103630    1.22841606740945
C         3.91135080927120    2.40833699263716    1.46696938509510
H         3.87584905913612    3.38394117783831    1.94249391111206
H         2.89652450278335    2.08883593004008    1.24223213827538
H         4.44757529477035    2.51380234097851    0.52247665339344
C         5.12170769161285   -3.77748967834908    8.18677296185831
H         5.59204614682311   -4.34112940070983    8.97747479648931
C        -1.15174523202608    1.46145489787021    1.74118340934367
H        -1.98816428010097    1.42277772224348    1.06065971248194
C        -1.20418546854178    2.28818634920503    2.85385104175143
H        -2.08229952878186    2.88771385163133    3.03888199874457
C         4.06743342284439   -0.74701520923977    1.01885847656527
H         3.55986036631236   -1.64160065238776    1.37713545948199
H         4.84810459949345   -1.06485790844416    0.32684290098118
H         3.35843846868837   -0.13698595523275    0.46631098734879
C         7.48877421554130    0.52647965425481    4.59501337235568
H         7.39171683628125    1.15890270671584    5.47424604218273
H         8.34440663375987    0.88512989562048    4.02136062720010
H         7.70165005966648   -0.48973072262552    4.91547155904060
C         4.68903271721694    0.02563523262664    2.13766065938502
C         6.26966435799812    0.58114968160307    3.73615626464114
C         5.56603167911396    1.76970851754725    3.36223967866591
O         5.00947736850864    1.22307086033130    6.85079140540067
C         4.63117378448044    0.83442502374109    5.84214539757635
C         5.92006702331630    3.15273468487699    3.79523349111196
H         6.37780185359300    3.14221508824216    4.78056058677112
H         5.03832756190831    3.78852131025342    3.83764844768731
H         6.62889390160663    3.59497431575580    3.09452228299918

