75
CSD_code = RALKOG | q = 0 | S = 0 | Stoichiometry = C30H36Cl4N2O2Zn | MND = 4
Zn        4.61994253855707    8.59838743488418    3.79385298090908
Cl        3.19602560492115    6.82174188488222    7.83056067779851
Cl        8.22725420873269    5.41341109610647    9.07330444794984
Cl        2.90950709114877    6.94253294144080   -0.18465778139010
Cl        0.81567968506788   11.74123267753095   -1.37896735495189
N         6.52492596215315    8.09999457331447    3.59090561404728
N         3.91546251434312   10.43741730696844    3.99430468389568
O         4.33566603128938    7.65358286018179    5.34415226927909
O         3.68767253573252    8.19773894626085    2.26299121764112
C         5.23617377524736    7.17496635078208    6.11813120218364
C         4.85974625150820    6.69900899118231    7.41066631616794
C         5.75260916254164    6.17249623025160    8.30581363274933
H         5.42168881015861    5.83216866972071    9.27408039378828
C         7.10067580309894    6.08305456166852    7.94608731523619
C         7.52460117852480    6.51751046200858    6.71835755093806
H         8.56755846205961    6.44054103951897    6.45051658367282
C         6.62073618678450    7.07416551776776    5.79199231021794
C         7.14753160461248    7.48394889811344    4.53133338969013
H         8.20289411336487    7.23506217612412    4.37543068042379
C         7.22184093096234    8.34577081157055    2.34530040934669
H         8.29823313668086    8.15293037234322    2.48183262862297
C         7.02307810912843    9.81116506374412    1.96704899549160
H         5.98307398399991    9.99578473068019    1.70529062814988
H         7.65413185570681   10.08062531805391    1.12571620146391
H         7.29363405097820   10.44550226309359    2.80897103172825
C         6.67967927375807    7.37132224209724    1.27569510235388
H         5.59636642810398    7.50498153169053    1.22397029586077
C         7.27557472632879    7.64127190065578   -0.10705762455787
H         7.05278498534903    8.65959794208606   -0.42667811700509
H         8.36234147689519    7.52628044980603   -0.06437151983311
C         6.69895501934011    6.67241562763205   -1.13730628876513
H         5.62190098316800    6.83164070568149   -1.21375481261666
H         7.13960773110437    6.87604740063561   -2.11573605464601
C         6.96305886025913    5.22675935872753   -0.73444961612572
H         6.52033053047055    4.55029945535702   -1.46766057764680
H         8.04022949103993    5.04237365544388   -0.71521791072447
C         6.37477112551791    4.95708291020839    0.64526365821869
H         6.57831797958267    3.92755342912278    0.94708700277828
H         5.29221403479620    5.09021321505522    0.61002434889150
C         6.96319844184513    5.92000673236771    1.67175408879714
H         6.52869523964165    5.70829988501897    2.65119461977478
H         8.04445975321964    5.76399298081910    1.73763992628636
C         3.06676152872358    9.02406110204225    1.50713851419104
C         2.59245013465732    8.58007136531556    0.23556755038334
C         1.91901277275129    9.39091200371135   -0.63898453317341
H         1.58278304607073    9.01102223499135   -1.59059551730367
C         1.67179407895022   10.71907985242235   -0.27891162146906
C         2.10049629259300   11.20547021161078    0.92759325806624
H         1.90292136309712   12.23252585418106    1.19513501435724
C         2.80565223778503   10.38749689153072    1.83245824664487
C         3.19779950569646   10.97333399938798    3.07241737266757
H         2.83122230655511   11.99342176903832    3.23059177484084
C         4.11130898718746   11.16948660909808    5.22850693986086
H         3.82561262953003   12.22332258722852    5.07998166161158
C         5.59084289697093   11.10319795676019    5.59674916006256
H         5.86425036791555   10.08985314678022    5.88338391350575
H         5.81328201071176   11.77624187616052    6.41912470421844
H         6.19351960121886   11.40339751923466    4.74180687624237
C         3.19443088970796   10.56144411115703    6.31458305466817
H         3.41444806694941    9.49264852360096    6.37419625772017
C         3.43449044355652   11.19198333337106    7.68762816743063
H         4.46979879872928   11.04726764095921    7.99745372504470
H         3.24066162834784   12.26694878656959    7.63302576206363
C         2.52126599200110   10.56081256884461    8.73650427183274
H         2.76106220448372    9.49992167814559    8.82698452375733
H         2.70191859126680   11.03059359915173    9.70577635630797
C         1.05570561179777   10.71087904822387    8.34745921476683
H         0.79179382254341   11.77098483690879    8.31294804502942
H         0.42140112649618   10.23166651726433    9.09529043632709
C         0.81770356282274   10.08146355078712    6.98022260507026
H        -0.22751590204592   10.20062133429339    6.68747262752640
H         1.03403067098777    9.01294668617484    7.03022849100273
C         1.72093253708456   10.72604657208203    5.93345078965676
H         1.53123513104761   10.26228493239534    4.96285926794885
H         1.48079739607913   11.79091069995415    5.85514054305413

