107
CSD_code = RALLUL | q = 0 | S = 0 | Stoichiometry = C52H48Cl2P4Ru | MND = 6
Ru       -0.91455557590711    7.96412742263831    4.49026235575692
Cl       -0.74931718816547   10.36913094596721    4.54600808052652
Cl       -0.71866744460152    5.56003824560796    4.44362448713424
P        -2.53486074928050    7.86575515489359    2.83584966525636
P         0.55110115982933    8.21452641601418    2.70041937110352
P         0.62128583127356    7.73378385715967    6.22304455238890
P        -2.47321389241132    8.03698202853053    6.20602107566899
C        -1.66686020432175    7.89593859256420    1.19600620195007
H        -1.27502925811144    6.89799658470116    0.97430037934004
H        -2.36501810265364    8.19353157657948    0.40717958214132
C        -0.52256502986528    8.88854799638714    1.35891308626959
H        -0.92096510202452    9.84763180992094    1.71312474150923
H         0.04122605614603    9.06121253177972    0.43747705283785
C        -0.38993543284872    7.05671804814116    7.61018011748674
H        -0.79016627560366    6.09004574973498    7.27949234638643
H         0.21149431401636    6.89893427569327    8.51025596699573
C        -1.53921262087426    8.03720985544770    7.80907536714533
H        -1.15124851972861    9.04271853992065    8.00185569178403
H        -2.20018568324215    7.74087733128860    8.62973202009881
C        -3.53463320081602    6.34815209687260    2.76440572450662
C        -2.99815780101500    5.15309615972348    2.29467151194687
H        -1.98689922482067    5.11774823600024    1.91659678165129
C        -3.74803327892549    3.99155230070497    2.33809080825935
H        -3.32226068304051    3.06828120509038    1.97310787003484
C        -5.03249618610583    4.00682329478203    2.85474982318468
H        -5.61474838321043    3.09732249122172    2.88628915343469
C        -5.56666010250570    5.18920968960871    3.34002804809418
H        -6.56373655811641    5.20516670097870    3.75623895977092
C        -4.81886600788918    6.35000281147303    3.30381802612854
H        -5.23302990357291    7.27325180008261    3.68604904145467
C        -3.79172825076125    9.14054487864959    2.46377147810839
C        -3.73823209183100   10.40000186752590    3.04374923451956
H        -2.96661295345238   10.62964659573968    3.76300288120106
C        -4.66417094751619   11.36861660831155    2.69161597798026
H        -4.61117297269054   12.34490346270678    3.15028378527617
C        -5.64848178257475   11.08637757749119    1.76280435306522
H        -6.37464628742196   11.83943969436606    1.49258814944403
C        -5.69878348242440    9.83314778326839    1.16984636905317
H        -6.46114375352508    9.61109299082703    0.43656273074872
C        -4.77351476064324    8.86730190294159    1.51107158641715
H        -4.81469943732960    7.89166782305388    1.04434803878218
C         1.31589878138572    6.75412816910007    1.91099405190395
C         1.90494642833669    5.81901522702891    2.75735095466669
H         1.85427489586973    5.96747558936002    3.82555326580155
C         2.53316311016173    4.69838945073246    2.24752533728635
H         2.97835370681078    3.98272569411419    2.92305139742954
C         2.58148848965489    4.49787448132058    0.87882096067861
H         3.06470818123802    3.62080372321909    0.47352038415677
C         2.00772821053550    5.42798380326039    0.02789809283382
H         2.04847978469147    5.27903096025492   -1.04194768776073
C         1.38104969592338    6.55198636872560    0.53599662031226
H         0.95106278442218    7.26448967251997   -0.15245670649377
C         1.97495269527638    9.35319067327603    2.66659881451006
C         3.25964233305587    8.86370308050683    2.89311514885633
H         3.41311347604596    7.80403290898527    3.04367361950246
C         4.33859447240893    9.72738220017258    2.92994710026724
H         5.33050490189509    9.33705350299804    3.10726392787705
C         4.14942272204620   11.08669783857437    2.74258615331590
H         4.99353653729986   11.76018203128459    2.77483977710485
C         2.87464315831085   11.57877948196113    2.51770385889610
H         2.72035597206980   12.63863651656452    2.37627146048166
C         1.78995184289433   10.72120311865719    2.48085091571775
H         0.79794063303136   11.12145254676466    2.34154434592534
C         2.05568266262732    6.60881072409351    6.19468280993701
C         3.32038178641338    7.10782656473333    5.88981543549011
H         3.45443354933658    8.16729882720665    5.72043878464007
C         4.40385240277071    6.25391377755564    5.79863285306144
H         5.37984820115472    6.65148213815583    5.55974745444950
C         4.23912885581838    4.89484803588596    6.00957052897639
H         5.08630568891147    4.22869989405893    5.93409478253860
C         2.98459813017442    4.39352369073876    6.31370376167385
H         2.84918485884987    3.33384756323349    6.47450899085299
C         1.89541868482593    5.24133514843071    6.40493131070813
H         0.91755460101027    4.83307085368692    6.60660148432329
C         1.40357345654012    9.20505333492078    6.97410371098640
C         1.95588924697919   10.13615644884755    6.09900436108269
H         1.86865511424412    9.97682045064905    5.03467397441340
C         2.59216498080784   11.26674005247578    6.57554254119205
H         3.00888267016808   11.97846305800747    5.87801017497750
C         2.68403011442246   11.48251719500269    7.93969870149864
H         3.17315377004218   12.36772273511095    8.31943112107635
C         2.14552250402090   10.55769104198587    8.81885853768032
H         2.21901182037959   10.71935746280530    9.88510952735968
C         1.51183474020901    9.42308891689939    8.34389197768767
H         1.10971268452767    8.71566689775924    9.05406296618672
C        -3.68780788814791    6.73940600840006    6.63693492725000
C        -3.64384560966070    5.48076368536381    6.05459223690204
H        -2.90454847703307    5.26200890353121    5.29904178066297
C        -4.53706818037910    4.49855068486579    6.45107070900424
H        -4.49174119356201    3.52298838192103    5.99001810456480
C        -5.47907383481842    4.76609888261067    7.42687159610912
H        -6.17942946121194    4.00211547020636    7.73227073293775
C        -5.52009990715731    6.01906238531042    8.02113873312473
H        -6.24958192889702    6.23027091924393    8.79019741911495
C        -4.62750778162283    6.99858673913917    7.63508536538632
H        -4.66223315445219    7.97438205989223    8.10205899091347
C        -3.50620324887074    9.53055192378773    6.31054571029413
C        -4.80952173477857    9.49287215272344    5.82024252023500
H        -5.21217757062583    8.55806841729244    5.45410093202470
C        -5.59013772425294   10.63233838122575    5.81283775208718
H        -6.60141881405290   10.58850677970412    5.43463621191741
C        -5.07113979418490   11.82928316597956    6.27851212397067
H        -5.67937271186082   12.72214080888794    6.26997074773775
C        -3.76901229708120   11.88035078205263    6.74623377056253
H        -3.35580149703393   12.81512624448050    7.09609740905492
C        -2.98588398738630   10.74012241842434    6.76057268959849
H        -1.96272477199283   10.80369801898329    7.10073947762573

