61
CSD_code = RALLUN | q = 0 | S = 0 | Stoichiometry = C18H26CdN8O6S2 | MND = 8
Cd        6.02991665330037    2.44263586207574    1.20660727538311
S         4.71461903186279    4.50149870890340    5.08072032723011
N         5.44766524494676    4.37553556367674    2.48599156178325
N         3.65854369232374    3.08732756815450    3.06158537722419
N         3.83800334089635    2.35735188287152    1.94295671975244
C         4.65189282489400    3.99538682965925    3.39835406363912
C         6.49567541859135    5.30829416890981    2.80932241512931
H         6.05432499336265    6.28623781775793    3.04981720525415
H         7.12140186069057    5.41477978332250    1.92278673015517
C         7.29191999959755    4.79399165330025    4.01247445199860
H         7.51607877205376    3.73599949430494    3.84863141491567
H         8.22951636334645    5.34221938606293    4.10960038557965
C         6.48128145012915    4.97934351239938    5.27535990133194
H         6.46788020482454    6.02259148920559    5.59495961450225
H         6.84956746203186    4.35575637479714    6.08900262550335
C         2.82365689659245    1.52178466355693    1.85259763678810
C         1.94192305098131    1.73368576781305    2.93029325769221
H         1.02694371166159    1.21340508563720    3.12744716112029
C         2.50056114731319    2.73049741832932    3.69286877722077
C         2.71035039862135    0.52181125396289    0.76075937466953
H         3.67350763435600    0.03510579813184    0.61427766949276
H         2.42679450944658    1.00544481976742   -0.17357513672951
H         1.96131799334060   -0.22407006695480    1.01248532460935
C         1.96335322219412    3.34473996235037    4.92950099833609
H         0.92825870391452    3.03737643546963    5.05464328095011
H         2.01079123550010    4.43126907925694    4.88628947292697
H         2.52939328885867    3.01904726530281    5.80132225474260
S         6.03949752377515   -1.42474365385446   -1.35159644273071
N         7.47299529543115    0.80934918072696   -0.70437460230756
N         5.39352842743676    1.16048725837885   -1.54417552390161
N         5.16122428496623    2.24946200129880   -0.79538894687304
C         6.42993701394679    0.29369263071287   -1.17324173665722
C         7.37449693233473   -2.06101590770727   -0.28698993227951
H         7.09063414620010   -1.85091078015796    0.74446332919007
H         7.40154359801892   -3.13640861235638   -0.45557995414197
C         8.68079802912473   -1.38229112576872   -0.65665097615631
H         8.85717382632371   -1.48884331386299   -1.73032725577336
H         9.50379570901018   -1.86043151635092   -0.12399984333106
C         8.63379671579960    0.09346515266211   -0.26934359742458
H         9.49337973409863    0.63810147130748   -0.67292548163140
H         8.67541481481566    0.19713902835333    0.82119720767056
C         4.21333229399121    2.94421475726409   -1.39524322795411
C         3.82305558454341    2.28265708632594   -2.57247661812171
H         3.08343335280123    2.59874532673765   -3.27982872932425
C         4.59468526464529    1.14407012044782   -2.64207179349223
C         3.70394647999161    4.22138520285320   -0.83557029767447
H         2.73375251204003    4.06980237639707   -0.36233557017727
H         3.58527525617445    4.95595103201047   -1.62908265363777
H         4.40859071835631    4.59240293649425   -0.09390080423692
C         4.62590783547340    0.09153736587493   -3.68608437157581
H         4.06858457078588    0.43063650282701   -4.55497597929436
H         4.17683752039449   -0.83062328109890   -3.31903875714018
H         5.64882860292365   -0.13078688945386   -3.98257332273246
N         6.22853835601573    0.45866685281520    2.84898907360390
O         5.98591282572993    0.33100914446962    1.63042609336775
O         6.12921345114983    1.57938411654537    3.35408794489076
O         6.52073049025618   -0.50750544380950    3.50575396038794
N         8.28514902926269    3.12110353122978    0.56545313463551
O         7.35016412763046    3.80961914045138    0.14273115894745
O         8.09249074148756    2.42939924957784    1.57891263098967
O         9.36771582944515    3.15143148042989    0.04488174357952

