43
CSD_code = RALLAT | q = 0 | S = 0 | Stoichiometry = C12H14CdN8O6S2 | MND = 8
Cd        1.58888551519079    6.13244409341159    9.06204002260488
N        -0.75437990389263    6.54561905550822    8.08409764065864
O        -0.54628914974464    6.28459738433188    9.28425526633131
O         0.23025308731692    6.66327166048603    7.33855734042982
O         1.47761411653266    4.44833575060326   10.56031686213730
N         2.22958558633821    8.28578808176099    8.37949029259746
N         3.05430998838706    6.00063971137539    7.10700435691176
O        -1.87125801509409    6.70904125568259    7.67515195252335
N         3.47448243428580    6.23895318463146   11.47042117011334
N         1.28591891511546    3.64472844734980    9.63486890823512
O         1.30512209472113    4.08508338655430    8.46978294082882
N         2.55110431729471    8.25853570685369    7.08225230458680
N         1.42309709865700    7.27725147617857   11.21583804513564
C         2.87810224543822    7.07531116964088    6.46590357340034
N         3.66718496974831    6.11423359726937   10.15356541601389
S         3.05722870642865    7.03663348530266    4.71706906489648
S         1.97537948335371    6.66679341642706   13.68721388717711
C         3.16180007785612    5.22071886658517    4.79568649387402
H         2.22198213567328    4.82758794755029    4.40944830114400
H         3.98358822660017    4.88804038547060    4.16556639764499
C         2.42286963829259    9.48371595850126    6.51606825498806
H         2.63050222720747    9.64704185600424    5.47751572956294
C         3.36367697070431    4.86825828572605    6.28375462371859
H         2.70867265137447    4.04635296574702    6.58176877234519
H         4.40093983986505    4.57437705963747    6.48415304248147
C         1.90030512219471    9.52867752023166    8.65020775453696
H         1.60053593941563    9.80917709862092    9.64121124857284
C         4.83981648057484    5.53995547339091   10.00663468452179
H         5.22451178179427    5.33028794850707    9.02754045317399
C         2.01178404378689   10.33703705033177    7.50456027448188
H         1.80812808959455   11.38420815297746    7.42129624063106
C         2.29705476597215    6.74918239693295   11.96057774305318
C         0.26867134897282    7.21295131644145   13.36517183045285
H        -0.37580394550160    6.34422239461718   13.49437456382013
H         0.00069560320427    7.97833029266797   14.08966703715654
C         5.43232518600390    5.28481594416966   11.25648113695123
H         6.37969826227804    4.82614929462064   11.44915089120692
C         0.25298875702368    7.72773967731986   11.91181206882708
H        -0.62264822136169    7.35469355546792   11.37602577718222
H         0.23833524826555    8.82367005593174   11.87944274023892
O         1.11938317658761    2.47489637429386    9.84721421696700
C         4.52125146733291    5.73892838762497   12.17200976432966
H         4.53449363620239    5.74632287723639   13.24353091357891

