70
CSD_code = RALMIB | q = 0 | S = 0 | Stoichiometry = C33H24F8NPPdS2 | MND = 4
Pd        4.65628082518200    9.62207783555363   11.40828250142074
S         4.82279081159648    8.58261637434919   13.49707330877330
S         2.44185245404011    8.69393638371076   11.18088691676149
P         6.59011819918224   10.70070225984362   11.82358917689933
F         5.10370194625099    7.06780055035397   10.92525365716783
F         4.13407074104005    4.57711324231196   10.40834056356161
F         2.38465150195024    4.31225833963310   14.76679826448194
F         3.32089703494771    6.80731139278998   15.30988374926670
F         0.59868275545289    7.15746021521414   12.93379963714728
F        -0.33832345033373    7.92435705199007   15.36843744117132
F         2.07048906774000   11.95557983357818   15.06235718748431
F         2.97329999158780   11.24911054968159   12.58505703401504
N         4.56549545299086   10.48137087153093    9.41597577690434
C         6.46264279662668   12.36898585257576   11.10826406245386
C         6.02257758528008   12.47344843041050    9.78417814849813
C         5.86556653543689   13.73155121912491    9.22202245326885
H         5.52867711256519   13.82061217551298    8.19879916238356
C         6.13521865636078   14.87469131126263    9.95611756636279
H         6.00443231660574   15.84630289049941    9.50463531430568
C         6.56893785160172   14.76786364835160   11.26593036263425
H         6.78163647801647   15.65583363837222   11.84178200351913
C         6.72907134625961   13.51979584522607   11.84148459338087
H         7.06449698425030   13.43556122706381   12.86513205386513
C         5.75078832411040   11.23462588148892    8.97313922793933
H         5.61385306839737   11.52443771514326    7.91891349102051
H         6.62092064106540   10.56785932855530    9.03174935220277
C         3.38041569665983   11.33067944634107    9.30082606748968
H         3.26896441479351   11.70950000815226    8.27635018253180
H         3.46967862649655   12.17562153639127    9.98674495400581
H         2.49135864459614   10.75527436507494    9.56201525107888
C         4.43768628817403    9.29369341355337    8.56730023088205
H         3.53299024055718    8.74239269669573    8.82875343978723
H         5.30333870603760    8.64075849589097    8.71580979211179
H         4.37995288084909    9.57533872157357    7.50716764209191
C         8.12226750639674   10.05080830566437   11.09976487811852
C         9.24182993167106   10.85215842102623   10.89865587507126
H         9.20861370531323   11.89911599168573   11.16812881473015
C        10.38651363015132   10.29897065700025   10.35446523882269
H        11.25888778920386   10.91633767375622   10.19753697068160
C        10.41712388506945    8.95543567209086   10.01123345000835
H        11.31477189225982    8.53121368767400    9.58687205759490
C         9.30137625498135    8.15758348034863   10.20834036937530
H         9.32754626190975    7.11287220600825    9.93817641033687
C         8.15207761994718    8.70467268140205   10.75043344849783
H         7.26506778026219    8.10151020804379   10.90964332460193
C         6.96333484839086   10.99185141517994   13.57054451967310
C         5.92237388947659   11.51331947452522   14.33958215691196
H         4.98260945430321   11.75768433301478   13.85971968493641
C         6.09505430254184   11.71139814656436   15.69465329111587
H         5.28673782739420   12.11244546223494   16.28717800910113
C         7.30308172951502   11.38097471970691   16.29083882078345
H         7.43750693295426   11.52681544845050   17.35223503736534
C         8.33377206960719   10.85313558031763   15.53145100514081
H         9.27003074704094   10.58821565235954   16.00044672340263
C         8.16859826840948   10.65125820820858   14.17156385811899
H         8.96931931515046   10.22619158047027   13.58262151264836
C         4.23150316853491    6.99558769723453   13.13598136522563
C         4.42235377931497    6.38271112388027   11.89239162992887
C         3.92654213227771    5.12277270833946   11.61740751158858
C         3.23349825500467    4.40901115941780   12.57981523945046
H         2.84103758000054    3.42994671356914   12.36682765214517
C         3.04635310867138    4.99281716657238   13.82213125100812
C         3.53208522703306    6.25973891129376   14.10124339309920
C         1.81494596017435    9.17637066667047   12.71055575814152
C         0.95359684911699    8.34959494649662   13.44441787808386
C         0.48575766710225    8.73390065726697   14.68947257565511
C         0.85424362629342    9.94363161574587   15.25646822668645
H         0.49919915787880   10.22364407981445   16.23279476177128
C         1.69704720413135   10.77445931842308   14.53851668560929
C         2.15042811659588   10.40792148150613   13.28744004793536

