48
CSD_code = RALMUN | q = 0 | S = 0 | Stoichiometry = C21H22Cl2NPPd | MND = 4
Pd        2.41846698818915    5.87136827183520    6.64412793394084
Cl        4.28126564568470    5.02397464114188    7.62655689670163
Cl        1.73970679929085    3.78036995959058    6.20694961465110
P         0.51055234291541    6.60381910033602    5.75743312970049
N         3.11477659768697    7.90867429023169    6.93156926792286
C        -0.04459369227421    8.15430607151470    6.53342071672322
C         0.91847027659310    9.13429180037648    6.80410818742740
C         0.54159290848352   10.27490080488545    7.49790180378037
H         1.27787967874821   11.03763641545708    7.70948324719281
C        -0.76467358358205   10.45117676272576    7.92341075958982
H        -1.03744001832464   11.34385476138187    8.46541143314827
C        -1.71453820766680    9.48200138211599    7.65285978099920
H        -2.73528565017370    9.61483905391682    7.97830896176430
C        -1.35358285594129    8.33580265160408    6.96738074245875
H        -2.09202494441941    7.57382292330695    6.76243013690076
C         2.33280389752152    8.99020911617316    6.30662651754208
H         2.30862314743427    8.80448017503641    5.22485618257213
H         2.85729431208011    9.94460011527784    6.47534351030891
C         3.18930429507873    8.10929983918844    8.37896699729325
H         3.80073003969136    7.31502122204323    8.81334588654635
H         2.18433592099146    8.06422007356276    8.80778199625063
H         3.63593038903203    9.08326554074094    8.61935643188190
C         4.45932473785417    7.93706934728916    6.34920106527151
H         4.39862925401012    7.72869075887736    5.27658266566283
H         5.07051940885996    7.16750356819916    6.82456278133999
H         4.92889811729777    8.91867498914962    6.49724159338706
C         0.76290443324503    7.03410800259723    4.01105163130099
C         1.85475777830713    6.43941516604621    3.38154480544499
H         2.48851484355673    5.75372456345715    3.95347658214485
C         2.11840072487895    6.71604165073888    2.05218286833116
H         2.96044639116235    6.25365513901776    1.55933506852293
C         1.29935106901511    7.59056346339657    1.35434062066476
H         1.50469450658860    7.80773254834452    0.31670942242605
C         0.21993979208410    8.19217520597147    1.98291512297287
H        -0.41087196244468    8.87685054867317    1.43517798784449
C        -0.05206197941165    7.91832237467449    3.31161540265738
H        -0.88718222810598    8.38948844752565    3.81256291182307
C        -0.95905438420329    5.54776468768606    5.81289234797375
C        -1.79875338626380    5.31089571398721    4.73312693709611
H        -1.60026653723354    5.77386538921946    3.77678214171428
C        -2.88504496786624    4.46562222704529    4.88794219860954
H        -3.53825274387922    4.27523042461067    4.04893157190811
C        -3.12980384330827    3.85858748177286    6.10788914676051
H        -3.97506818283989    3.19562575202008    6.21861599350179
C        -2.28453460684853    4.08610467854308    7.18431002535426
H        -2.46864525859519    3.59863605738036    8.12988849059495
C        -1.19815919093056    4.92465196722810    7.03709609253663
H        -0.50457607195519    5.09336487410549    7.85669438886123

