91
CSD_code = RALMUO | q = 0 | S = 0 | Stoichiometry = C51H34BrMnN4 | MND = 5
Br        0.56271018512784    6.79124430607410    2.94301578163386
Mn        2.60555777596318    7.94630104988647    3.11256078778723
N         1.84209276203888    9.56858185344038    4.03646965164304
N         3.29967697781148    7.25309136272040    4.83667461006624
N         3.69409920554805    6.60027882606668    2.08606053439011
N         1.78865076851366   10.51831657861410   -0.16435163865737
C         1.10687234432245   10.60436925846935    3.50104029331949
C         0.46834653822372   11.34954789742505    4.54673251689006
H        -0.17928185209171   12.19028425652985    4.39689351266002
C         0.84650934098286   10.78926814614126    5.71655425943483
H         0.56452323933541   11.07315646290280    6.71123352899877
C         1.70209549695647    9.68415888634929    5.39380305246027
C         2.27538424545230    8.86354987240114    6.36791571326228
C         3.04581740823215    7.74086735814252    6.08767688693630
C         3.66288571574849    6.90819374916667    7.08268827922699
H         3.63164416147809    7.09103246603126    8.13904035347482
C         4.25980186870961    5.88965084845066    6.42328423864823
H         4.80575400362896    5.06072145443815    6.82927996870925
C         4.02629428048564    6.10998806947733    5.02301079135554
C         4.45093569013768    5.25536475393341    4.01297439374440
C         4.27517880861854    5.50215038910987    2.64953851167478
C         4.77305371417981    4.61467608687965    1.63216500973017
H         5.27249129141545    3.68589906159228    1.82691989954204
C         4.48832559283372    5.18027368616134    0.44144063805622
H         4.69438367795259    4.80369574166288   -0.54088344458411
C         3.83199188378174    6.42808623808071    0.71896381440328
C         3.42561227630020    7.32965675574364   -0.23990971257047
C         2.78531902997829    8.54063753830897    0.11357717732126
C         2.37138862283872    8.95520508578800    1.42563342558708
C         1.69960371208230   10.18485291153456    1.18865220881283
C         2.44191263807944    9.54167147636532   -0.79388232885766
H         2.65219329906005    9.58924605044011   -1.84670735250280
C         1.01622917345257   10.93487872565843    2.15344906932346
C         2.03329748595658    9.19232026057654    7.78932609946558
C         2.55921026227792   10.35284831805187    8.34728581408603
H         3.14696159954800   11.01938398185088    7.73175675453999
C         2.34137057936890   10.64667766638284    9.68114417055883
H         2.75879887443994   11.54755988746120   10.10711961366630
C         1.59094069437349    9.78968420021910   10.46871725989805
H         1.41996321291436   10.02157161880084   11.50958203938341
C         1.05986242825225    8.63542637030794    9.91763447007094
H         0.47059096388917    7.96599487697462   10.52696814268059
C         1.28192572061295    8.33463363673055    8.58612417179041
H         0.86426213265736    7.43810321926020    8.15126832033351
C         5.13841140873024    4.00453230042685    4.40675898519033
C         6.42837329749573    4.03598719602383    4.92403991292144
H         6.93617361727259    4.98442730887034    5.03163549387275
C         7.06145707599032    2.86167012048010    5.29027136897325
H         8.06562360047020    2.89496042299459    5.68762709891829
C         6.41057251400029    1.64777681997143    5.14851786883375
H         6.90533495793689    0.73205815649119    5.43681904331543
C         5.12412027437509    1.61110046009325    4.63656179524166
H         4.61192159867334    0.66655684882114    4.52653714933135
C         4.49006467733544    2.78245563811567    4.26410383956580
H         3.48577031235429    2.75962379999775    3.86630181720836
C         3.63435896026797    7.03701712618951   -1.66789762673689
C         4.91472409513984    6.86043827664852   -2.18503841280954
H         5.76839046866922    6.94346765207912   -1.52781178410174
C         5.09524223438369    6.59935233987368   -3.53115792729544
H         6.09344067363954    6.46812307164334   -3.92280755609855
C         4.00128254271094    6.50456738278741   -4.37519709868890
H         4.14400782578166    6.29511432995675   -5.42491037422724
C         2.72397650703845    6.67761772074173   -3.86781240634476
H         1.86749841318295    6.59929904083888   -4.52129468612402
C         2.53984663420941    6.94845231792582   -2.52450217822332
H         1.54504544909970    7.06929152495256   -2.12136342923583
C         0.11758982974081   12.05853873356724    1.81311980828211
C        -1.10730340746301   11.79435828917809    1.20588032466622
H        -1.37167462433640   10.77245143287469    0.97391115480397
C        -1.98226120446428   12.82848557144374    0.92474176143353
H        -2.93279087735648   12.61428673523856    0.45876809668684
C        -1.64472008512958   14.13302264612294    1.24709029017971
H        -2.32952370750033   14.93875958514761    1.02811557580109
C        -0.43248777299612   14.39955015635664    1.86034073715294
H        -0.16722997467560   15.41365591317038    2.11997618702687
C         0.44410346344208   13.36817540504659    2.14616420587973
H         1.38981745003360   13.57505600179297    2.62538151436629
C         1.41381749042198   11.74267525064632   -0.82022268907911
H         0.34183915369524   11.92398080444437   -0.69980203005010
H         1.61015876666100   11.60580895263706   -1.89049926432545
C         2.18254505829056   12.95228944055856   -0.33951267153676
C         1.69125896246470   14.21789828098235   -0.63559802461088
H         0.76530149481647   14.31311039346955   -1.18413879760648
C         2.37122339983435   15.34809241949256   -0.22384278509824
H         1.97761544352574   16.32610726354874   -0.45690692489301
C         3.55072358617864   15.22579343683932    0.49220196660957
H         4.07891990547639   16.10791381169025    0.82184939712298
C         4.04922763662082   13.96854295024429    0.78186368396099
H         4.97030752520255   13.86548806334672    1.33628855747569
C         3.37223357635568   12.83512368043911    0.36330344675511
H         3.77493394093847   11.85994368518030    0.59570429711161

