76
CSD_code = RALMOH | q = 0 | S = 0 | Stoichiometry = C35H30F6NPPdS2 | MND = 4
Pd        2.39750716431833    1.19816273260287    5.15654972732678
S         2.54133121603489    3.37861498005679    4.31828687063422
S         0.28900153486491    1.73632521619812    6.05248891791369
P         4.50750676698144    0.95556207778035    4.38148673085417
F         1.55025434849964    6.09843579175943    3.37981468494083
F         2.27831790359678    6.68812457700779    1.45430069077980
F         3.61878132755924    5.78898008026506    2.86173596684300
F         0.70144516158722   -0.40193311225457    3.88054685405228
F        -1.02789734383896   -0.81982432408089    2.68015206219381
F        -1.23035067264186   -0.64347306616815    4.80328586003434
N         2.71413715199554   -0.58306790720875    6.56729186744002
C         5.16653150979427   -0.74183091783854    4.43463934604505
C         4.82096285529892   -1.53886627823309    5.53452999585653
C         5.21902810980241   -2.86817492100104    5.55039241509843
H         4.95416340867795   -3.49187701335856    6.39271337402806
C         5.95873182791942   -3.40734632291647    4.51163310519889
H         6.25265724410953   -4.44548518104241    4.54194248027155
C         6.33326692067916   -2.60643870062459    3.44771876787824
H         6.93444157360503   -3.01016851108014    2.64689750306680
C         5.93410797242368   -1.28261687150760    3.40850701248436
H         6.23347588887073   -0.65866915489040    2.57911313529319
C         4.12729090338628   -0.96247295450342    6.74187453729958
H         4.18875670053154   -1.70768149242915    7.55322429338095
H         4.67797441123293   -0.06964958555831    7.06449800036549
C         5.58047279414491    1.81548789881950    5.57404175850805
C         4.99021907836583    2.54696138758002    6.60203925763425
H         3.89925161536584    2.61598250368964    6.66019871080048
C         5.78689113959120    3.19686554849297    7.52834915099782
H         5.33215363716314    3.77083469802145    8.32182769982599
C         7.16691715245164    3.11396711465308    7.43388237180535
H         7.78765337658015    3.62411587506916    8.15525895512746
C         7.75521993156006    2.37960279753576    6.41536956935400
H         8.83122750198122    2.31761080594591    6.34577427402883
C         6.96645329131486    1.72720187117202    5.48601404526040
H         7.41593859457252    1.15217953184126    4.68759014163841
C         4.97920640552407    1.64685033065447    2.77452141909733
C         4.60578194019393    0.98053034578709    1.60747039445339
H         4.13941168662771    0.00559186168986    1.67273755088560
C         4.81641271923337    1.56847721222428    0.37479689687169
H         4.53103460028813    1.04526894920275   -0.52578259624365
C         5.36760911096555    2.83721663537025    0.29667518128520
H         5.51402954935236    3.30227804825902   -0.66659100340156
C         5.71514654563312    3.51447022617627    1.45366125588476
H         6.12402583895670    4.51170822377502    1.39762518880699
C         5.52213911244156    2.92595629390107    2.69012405709176
H         5.77118644868776    3.46786511309910    3.59097407075337
C         1.93252532816148   -1.76048758927490    6.20299923573002
H         2.05966702466223   -2.56173103792285    6.94413959729984
H         2.25307165272199   -2.12763630698148    5.22729291574519
H         0.87717960785416   -1.49526182855386    6.15809660812200
C         2.24333562015206   -0.06328724439917    7.85565329303375
H         1.17563020206886    0.14922356299293    7.79977500607949
H         2.77081423705285    0.86366318729913    8.10114639897252
H         2.41348138331829   -0.79655466796106    8.65684114483947
C         2.11600179182223    3.23108963174083    2.65334575348781
C         2.02903959932068    4.36172132959568    1.82586923756155
C         1.64457527823009    4.23578985307746    0.49962482848916
H         1.57912227377882    5.11918445337237   -0.11685510427464
C         1.34510032001275    2.99476961555423   -0.02968644827127
H         1.03639118433962    2.90819838008180   -1.05923870376565
C         1.45269646014663    1.86754539867556    0.77088665377090
H         1.23424603635931    0.89125906180661    0.36401020028636
C         1.83786482786267    1.98340847997135    2.08751034989361
H         1.94877448054804    1.09936128626695    2.71481934695081
C         2.36192942306082    5.71350990667994    2.37955460106899
C        -0.46131103949097    2.27033409689161    4.57153931410777
C        -0.87191113161867    1.37585466590200    3.57170793863283
C        -1.46578265369213    1.84644638865360    2.40634336267848
H        -1.76847935245813    1.14538612385090    1.64346890854465
C        -1.66122912937827    3.20131302853591    2.22487364520061
H        -2.11298221500471    3.55991673558651    1.31328976610584
C        -1.27433224228257    4.09319889494715    3.21548191268737
H        -1.42048746077763    5.15386580866185    3.07793602079957
C        -0.69473621429692    3.63363516566772    4.37783802458149
H        -0.38052145367391    4.32101077346386    5.14849755778341
C        -0.63477979501859   -0.09147956818515    3.73625608405028

