59
CSD_code = RALMEX | q = 0 | S = 0 | Stoichiometry = C27H26ClFNPPdS | MND = 4
Pd        2.25657398162012    1.94486916287911    2.35943683988613
Cl        3.38771003018971    0.21298291705426    3.33544959646903
S         1.39895132007036    2.45584791268655    4.46485046758258
P         0.77488626259642    3.31141365397553    1.39453984184834
F         3.98015494581465    3.58991747686475    3.29604761660792
N         3.27163443165152    1.59321304744811    0.43108685097998
C         2.90529456568613    2.77860005858104    5.28353464904862
C         4.03455809354441    3.29483138261567    4.64862777158404
C         5.21688147077907    3.53951747324258    5.31143269498126
H         6.06091934117258    3.92323969319891    4.75975836212988
C         5.29268458355105    3.28596424150225    6.67075525226113
H         6.21383795619361    3.46770019963792    7.20180840537008
C         4.17967105578641    2.79750255829374    7.33779335782667
H         4.23120647285293    2.59966484267905    8.39800183148800
C         3.00659998397918    2.54611069585683    6.65702872580638
H         2.14270462952934    2.15205777608889    7.16977690754690
C         0.48878534434977    2.89833408509324   -0.35997846547570
C         1.58005611321616    2.53692462391477   -1.15563242875553
C         1.35889004216597    2.15261726489246   -2.47093736182537
H         2.19765876582814    1.87108944680051   -3.09210123067074
C         0.07932612720909    2.12803341113189   -2.99889876745421
H        -0.07357612786453    1.82694027525736   -4.02420898301488
C        -0.99939674227477    2.48803007901664   -2.20971627812406
H        -1.99941654724642    2.47331346081041   -2.61640914889284
C        -0.79535506456432    2.86421668100242   -0.89455660015496
H        -1.63663103620882    3.13828578402528   -0.27409252573770
C         2.98226479294945    2.59213511523739   -0.61093797891799
H         3.68687616372991    2.45209031855311   -1.44718361905441
H         3.15920880747944    3.58635755208232   -0.17664853557676
C         2.95967399839144    0.24419025636315   -0.03455403160758
H         1.89524073174717    0.16901119964416   -0.26855996278469
H         3.19996680020053   -0.46564750330270    0.75923026044391
H         3.54061723949698   -0.00932125025597   -0.93200877080502
C         4.69264237611920    1.69063617399767    0.76982946617124
H         4.92486906702484    0.97340767795697    1.55939826133652
H         4.91540106587227    2.69867633071141    1.12860032706852
H         5.31916432783569    1.47816155939624   -0.10797696579865
C        -0.84520894561435    2.93285076212133    2.12530967257447
C        -1.03998818841913    1.60052210634205    2.48884432879999
H        -0.22636519934111    0.88243828009089    2.34466306759580
C        -2.23776393346878    1.20743228155791    3.05272421906360
H        -2.38790277742079    0.17817566114485    3.34226292113348
C        -3.24193416630944    2.14139291900364    3.26033353641752
H        -4.17557352101892    1.83667819144164    3.70958521888680
C        -3.04772719012264    3.46580025477262    2.90556694222357
H        -3.82948284227860    4.19153802634870    3.07662648141655
C        -1.85088588942969    3.86735637732421    2.33696171280815
H        -1.69275459424372    4.90265678581213    2.06639831849746
C         0.88637427373643    5.12123767977237    1.42935585352626
C         1.30507776058804    5.68674912820696    2.63180350376897
H         1.53197038280286    5.03434378385734    3.46675615135311
C         1.42144422533626    7.05848758017103    2.74611911449642
H         1.74439209545781    7.49725870140478    3.67848509834602
C         1.12946125347673    7.86926059706491    1.65979197421065
H         1.22266476735329    8.94173255754847    1.74640198284971
C         0.72330095874409    7.30772328008888    0.46005457551095
H         0.50057630760876    7.94180693743497   -0.38582292555795
C         0.60261019311240    5.93424025363799    0.33792988340645
H         0.28867965883589    5.49410222004407   -0.59883746310536

