90
CSD_code = RALMIC | q = 0 | S = 0 | Stoichiometry = C44H36N2O5P2Ru | MND = 6
Ru        1.92720423073950   10.98048028105821    2.22525443212116
P         0.09879826815570   10.32208650251838    3.49189065882815
P         3.91984840597716   11.12973322753396    1.04332081390145
O         0.86856771553886   13.65280479430781    1.42255484146166
O         2.78855075744869    9.19258761332526    2.99379827444255
O         4.00961586619086    8.47951823356905    4.71508932954634
O         6.14797779051027    9.80939087196490    6.20638116373462
O         4.25358989410834    9.40361153687378    7.35242851779198
N         2.83064021316309   11.69968513195396    3.86828018992260
N         4.22830861997273   12.32796139486044    6.21393769984172
C         1.25730741969201   12.60186169276302    1.69878385378203
C         3.49516597848293   10.77515801884114    4.57404370644609
C         4.19403096097272   11.09176509951822    5.73317652305741
C         3.56068442930716   13.23925398458418    5.51698403977710
H         3.58349908228486   14.24575183442084    5.91011165536590
C         2.87418895030383   12.94692922336885    4.35382001856854
H         2.34882723436331   13.71617472928455    3.80248752265490
C         3.44214877760169    9.34728385600923    4.06451157810918
C         4.98313149779205   10.00987842788711    6.42233344440534
C         4.87004272741547    8.28415604654566    7.97719611915879
H         4.92307921925591    7.46286201172994    7.25985132539959
H         4.24145586564009    8.02003295896268    8.82433761728662
H         5.87860298266162    8.54181524514426    8.30690918319341
C        -1.44084624418480   11.28090204527261    3.32015496586532
C        -1.78736615659852   11.65093362772784    2.02344699363541
H        -1.11552592108434   11.39416989020931    1.21159782735048
C        -2.96341654108888   12.33667726771401    1.78596767922650
H        -3.22615274221062   12.62451004450631    0.77899600142825
C        -3.80191900320285   12.65823902469749    2.84173879000959
H        -4.71874867281928   13.19908688829586    2.65964721843332
C        -3.46375675731522   12.28709907532043    4.13219088334362
H        -4.11757452528730   12.53561802454705    4.95567497725937
C        -2.28928548861535   11.59620449899721    4.37538512375894
H        -2.03230983595890   11.31421401569911    5.38739506783519
C        -0.55059765233588    8.63076336324563    3.29254338896635
C        -1.67944741141508    8.24064183886859    4.01052115115446
H        -2.16523718244720    8.94108810984783    4.67568644133589
C        -2.17474650169986    6.95854611106455    3.87190809031818
H        -3.04977464403265    6.65787337055643    4.42966475721652
C        -1.55053870331850    6.05906393929998    3.02068169223988
H        -1.94108281523839    5.05737567032104    2.91647912780947
C        -0.42800486056228    6.44432712192851    2.30834289533775
H         0.06134291643293    5.74274910947901    1.64896276800275
C         0.07151469749264    7.72863368805744    2.44057801657467
H         0.95193519603667    8.03895316781201    1.89774713057230
C         0.46984895098701   10.37341130924855    5.27059917010839
C         0.51601421071991   11.61059996532128    5.91347762048407
H         0.22717054169958   12.50290109325056    5.36900838599904
C         0.92732995447663   11.69269528744370    7.22985818832439
H         0.96275241655575   12.65307375635599    7.72375436807497
C         1.30423397653992   10.54542133231707    7.91089598543062
H         1.63347005999488   10.61369490924896    8.93634458225670
C         1.27142689344730    9.31704775635775    7.27329386810702
H         1.57372206296669    8.42476958957603    7.79868317490807
C         0.86595625111136    9.22779530812765    5.95374931105819
H         0.86116226908813    8.27129437272852    5.44900590356719
C         4.03890439182736   12.39247944779270   -0.26509198266911
C         5.18824132112568   13.12676391123761   -0.53469070696192
H         6.07064654133672   13.00673670988068    0.07878696350649
C         5.19885919775389   14.02984663164291   -1.58339690402471
H         6.09181096260240   14.60360944327900   -1.78528664483141
C         4.07267313118242   14.19948803717559   -2.37105757482274
H         4.08706598980499   14.90773413729725   -3.18623636954882
C         2.92818827092941   13.46225919935804   -2.11118654834757
H         2.04918202924394   13.59310056408288   -2.72458562284107
C         2.91046628563544   12.56220963995646   -1.06256456595596
H         2.02271936948946   11.98041533329045   -0.83992764571037
C         4.51104470702774    9.66764376226500    0.13108525897414
C         5.73168119361770    9.72863632807449   -0.53862598987190
H         6.31787113079297   10.63674521133745   -0.51078784649673
C         6.19240209560080    8.62655125418898   -1.23214110174645
H         7.13998463222504    8.67466486032509   -1.74879575479500
C         5.44271381186264    7.46015893672482   -1.26335444367902
H         5.80904879950404    6.59974164347524   -1.80397989549231
C         4.22892474757049    7.39894838063248   -0.60106769159105
H         3.64637343978244    6.48969508938603   -0.62252295290572
C         3.76015221956121    8.50124822138415    0.09295095457390
H         2.81770253076592    8.46511838014908    0.61899447066140
C         5.31647441594546   11.48828082150528    2.14737229727025
C         5.46663674576660   12.78779086036457    2.63230909146799
H         4.81746288266579   13.57217067001355    2.25819034632774
C         6.43304678306508   13.06475212004479    3.58013237345024
H         6.54660879863424   14.07259094808416    3.95343020960169
C         7.24447687498218   12.04811860140886    4.06015536212168
H         7.98856853155490   12.26228101126075    4.81140050928702
C         7.08881791182607   10.75361344612583    3.59397954958319
H         7.70353065940346    9.96048654594345    3.98737093925772
C         6.12122800387770   10.46838194816325    2.64683820375220
H         5.98332537315090    9.45360001986636    2.29851743575760
H         1.29295059425003   10.28028059384554    1.00632222194589

