57
CSD_code = RALPOJ | q = 0 | S = 0 | Stoichiometry = C18H35ClN2Ru | MND = 8
Ru        2.38304594022040    4.01373196333203    8.07836100744567
Cl        0.32063609664241    3.94295278779349    9.32253308816143
H         3.45313154114819    3.81069942714659    7.02840230147784
C         3.16096537019641    6.02274193574009    7.73214895431999
H         2.87492439496122    6.43416418674133    6.75957891408267
C         2.21115072074024    6.09342010308129    8.75703209184135
H         1.23141494164174    6.49573346246873    8.50044346376697
C         2.59066546790712    6.34056268573454   10.20325589750835
H         3.49028538175506    6.96046221049759   10.23491692896586
H         1.78945615335398    6.90613034267817   10.68388618559240
C         2.80639932733162    5.03334135487856   10.97947169270218
H         1.87440813685855    4.76221179503031   11.47929589650760
H         3.56770826138588    5.16664042176557   11.75931977380357
C         3.20606416269244    3.88155765534797   10.08555460740945
H         3.01638396235573    2.91610390920304   10.56392917561103
C         4.27925218418929    3.93861145596889    9.18645984728747
H         4.82600882826006    3.01097669927207    9.01460152423633
C         5.15772497231238    5.17053904984813    9.05192787578787
H         5.22034796619488    5.66451233693466   10.02433988414777
H         6.16852893293549    4.85404245248500    8.78637868835277
C         4.64867984669426    6.15105779082007    7.98407435220679
H         5.16766848828612    5.95230799692954    7.04437694774664
H         4.87706348599066    7.18442983373572    8.27252521565536
N         0.99421201728453    4.06018038805770    6.27821676443652
N         2.06257969941958    1.74429028860638    7.76780605663156
C         0.28616258840341    2.74985633472540    6.29050484789749
H        -0.39823337704546    2.78594802573923    7.14713655812093
C         1.26992714842938    1.58117124869773    6.51345900161957
H         1.99567086922525    1.59411420161817    5.69099706611838
C         0.52222802398027    0.23687625376685    6.45530022651674
H         1.23358319466472   -0.58273697876173    6.57578175503059
H        -0.20603695804877    0.18374440360962    7.26443530964301
C        -0.23750754637180    0.05666623907148    5.14838739244580
H         0.44902856283440    0.08869406738728    4.29919318069886
H        -0.72922073568168   -0.91774036713734    5.14597140894355
C        -1.26200335287345    1.17333526967237    5.02764139112641
H        -1.95285222180156    1.13394987458986    5.87192145167592
H        -1.84395971140256    1.06335214441351    4.11061686207444
C        -0.53138978330717    2.50895325803573    5.00771767856295
H        -1.26073609994732    3.30930793700440    4.87984016199870
H         0.13194876645440    2.50633345389690    4.14114720279779
C         0.02040083434417    5.14977953955704    6.41051962422104
H        -0.70297052718426    5.15014813532141    5.58733234382818
H         0.54528388183355    6.10440188908109    6.39053163368309
H        -0.51417850752297    5.05360800886774    7.35536292084869
C         1.71601563347214    4.28664791832203    5.01859014648032
H         1.02320527307602    4.48205341245706    4.19216723567466
H         2.34500548160508    3.43586364741061    4.77050361929760
H         2.36438837105015    5.15302927529688    5.12794271408891
C         1.39637390178933    1.13234439066075    8.92566944429207
H         1.37687477757021    0.03987084892711    8.84962663770928
H         0.38549982809703    1.51733782793413    9.03559890260689
H         1.94480070783927    1.39218963055418    9.82937702947092
C         3.34284329049681    1.04484502751459    7.60747795216168
H         3.18943774249758   -0.01347260185804    7.36064960914848
H         3.90105554759599    1.09452071442102    8.54065155809444
H         3.93644811517042    1.51380443510539    6.82530999743504

