124
CSD_code = RALQUT | q = 0 | S = 0 | Stoichiometry = C54H57MoO6P3Si3 | MND = 9
Mo       10.53462316634582   11.28255093472505    3.93788353837091
P        12.03338315965488   11.47661390780279    6.14659027227191
P        12.15062164403406    9.18099004714351    3.85318205542846
Si       12.21075930397946    7.34995940949876    6.42858781864655
Si       13.67379603513988   10.60612006108062    0.39726723955256
Si       13.48695339151102   14.70004807468165    5.61505139893716
P        12.87563172440543   12.29741899993675    3.08335261105251
O         9.16257317636290   10.57168864763108    1.27583207184906
O         8.05611529481247   10.23357190697721    5.43621709029773
O         9.12222856886710   14.01381783580011    3.97384517613701
C         8.97713141713740   10.59840909438635    4.86294441005807
C         9.64223498290470   10.83927894712948    2.27936677558821
C         9.60828306765695   12.97972759976714    3.95388628017655
C        12.04903813628381    9.84837235372119    5.47025988346128
C        12.52687713646761   10.59296534898537    2.85274965559138
C        12.28142606034665   12.50803497041855    4.73636723776472
O        12.64111998024930   10.11802707840463    1.59005845748804
O        12.19115602115889   13.82757941163089    5.07427549955564
O        11.85702485092053    8.96937868239076    6.47112928462597
C        15.20426144229911   11.41631573869530    1.19546290126029
C        14.64564170852771   13.38666293532874    6.35414879108832
C        13.65974186923120   15.58961702904183    2.89503495111208
H        12.66512906543968   15.17112562397525    2.80725471155385
C        12.60824894367008    7.04310010061569    8.28285499992779
C        10.72371543165471    6.40237423192761    5.73859699676112
C        14.33018116420542   15.49352451321843    4.11217073049759
C        12.66053878189804   11.63228713238284   -0.88133209605999
C        13.75110646310766    7.95644705365677    8.73672276826810
H        14.66740911494082    7.72234503967566    8.19853215472161
H        13.93718356138132    7.82269279649353    9.80182244634817
H        13.50270089810648    9.00162128487830    8.56323114301933
C        11.93959008967902   12.81079251773546   -0.22079457890188
H        11.27005703468639   12.46196439537581    0.56685484652945
H        11.33837455761052   13.34327418849102   -0.95710945110593
H        12.64295977103948   13.51658532916416    0.21746050253800
C        13.56559260476116   12.15381580566375   -1.99793264133753
H        14.35606688363134   12.78871667423476   -1.60559909649048
H        12.98382864237158   12.73272525200891   -2.71405956875771
H        14.02670976074550   11.32543544857531   -2.52946802323643
C        14.25274605906507    8.93192431917675   -0.27180276972126
C        13.71037320838872    7.08562209001705    5.28377228452999
C        14.73026022610130    8.03671343378968    5.23336098055881
H        14.69192334894833    8.89746660958900    5.88912309161460
C        15.60192217278425   16.05364145356086    4.20542078313586
H        16.14041781849614   15.98524157356831    5.13963619630933
C        10.65194369297253    5.01169775321261    5.78989901048908
H        11.45896659795296    4.45491101652656    6.24229059768468
C        11.36870965763917    7.33539230340987    9.13054141010497
H        11.05377331144787    8.36778528203694    9.00157370557770
H        11.58342730564031    7.16962987469607   10.18569482053590
H        10.54371387346902    6.68741794412583    8.84241903593443
C        16.18176459102460   16.69108005094073    3.12358474788846
H        17.16821502418054   17.12292669782875    3.21643899927279
C        15.48559664975157   12.78022578182654    1.17740731099819
H        14.81697309726643   13.46274748521043    0.67448194828165
C        16.10020576008864   10.57609566123099    1.85638804022773
H        15.90132431032145    9.51365559842992    1.88117613019686
C        12.67969660758065   16.02325067347574    6.73991520097050
C        14.66690833253900   13.03481689562733    7.70094515922216
H        14.13757998243090   13.64179108272818    8.41960977035287
C         9.56519014539608    4.33235480727567    5.27100596776152
H         9.52978134750135    3.25358709133241    5.32386803831225
C        13.76961922034668   16.81116201952207    7.46236796312850
H        14.37079895221333   16.16295334019495    8.09525901169834
H        13.32732149875478   17.58562429550002    8.08766636274585
H        14.43002819438727   17.29065310160028    6.74360979175529
C        13.78795715054251    5.99772378281465    4.41745944367682
H        13.00638375243853    5.25303957495221    4.43399022423035
C        15.21307910528425    8.87136251720987   -1.27708016041075
H        15.61742944083018    9.79043894816236   -1.67506104043956
C        13.76911549548004    7.73262426465869    0.24362525567576
H        13.03139383944727    7.75689429017104    1.03312257271777
C         9.66711894744827    7.08582009542007    5.14194842435472
H         9.69469727461888    8.16588012377647    5.09083663270820
C        13.02770798222476    5.59110616530656    8.49566805537906
H        12.20086779767783    4.91898936238183    8.28429641457614
H        13.33249860154729    5.43314940168188    9.52943682562995
H        13.86191035789680    5.32781685087866    7.84887830729523
C        11.60314136978278   10.71064738157046   -1.50052665746454
H        12.07161011260559    9.86672405115532   -2.00254522002075
H        11.00871893066832   11.25850337392803   -2.23048999591552
H        10.93233304290056   10.32471062094797   -0.73688641898455
C        11.87879573384658   16.98450214677782    5.85719605415477
H        12.52511369397534   17.47578357782040    5.13286626815731
H        11.40565432017577   17.75133955141086    6.46943917801068
H        11.10114216093669   16.44944540248251    5.31792659515080
C         8.57781084365190    6.41372956528795    4.61915993594241
H         7.77333714474587    6.97131177811906    4.16309825919602
C         8.52370287180203    5.03214009015393    4.68393967653269
H         7.67480304365947    4.50148817252254    4.27859686529013
C        16.61413245362733   13.28839867340321    1.79681888219706
H        16.80466880638704   14.35085423697493    1.77485687365724
C        14.23588497541908   16.22071097671129    1.80758519959902
H        13.69696226790202   16.28869334060473    0.87324125792809
C        15.78554256994513    7.90352045865782    4.34979181650741
H        16.56770697412097    8.64774748129285    4.33062439367380
C        15.49876429172749   16.77741541442220    1.92094527022291
H        15.94990716229777   17.27693327626770    1.07554941118443
C        17.49284561575441   12.43794584009455    2.44472631166569
H        18.37403497884674   12.83343267827712    2.92823479907261
C        17.23376710418158   11.07765825090295    2.46923804270831
H        17.92585005807852   10.40651800944790    2.95894216191091
C        15.35448622203507   11.91590879865660    8.13991167245210
H        15.35019855232626   11.65859702309583    9.18921966372202
C        11.72570796774574   15.39983144155676    7.76064295908242
H        10.96743079523712   14.80364238642844    7.25769890344278
H        11.22418297026309   16.18100167733195    8.33091777223521
H        12.25382050276082   14.75728499729760    8.46055895265655
C        15.83893901172769    6.82174129527414    3.48682005079481
H        16.65326231314652    6.72626834373342    2.78319967989538
C        15.35153873505863   12.58169412467748    5.46083490048429
H        15.36971408260266   12.83953615242579    4.40814580594724
C        15.66704859492959    7.65850690321712   -1.76134933505047
H        16.41311585667872    7.63386393497081   -2.54264484866564
C        14.83849227476674    5.86646868527592    3.52666943564799
H        14.87462206447838    5.02009051238626    2.85671892601543
C        15.16871389583884    6.47522905972209   -1.24144891318169
H        15.52165392326913    5.52635814666901   -1.61882309059535
C        16.03611363628202   11.12093219014879    7.23507403525710
H        16.56303930284000   10.24062848425715    7.57438794654391
C        16.04027837530437   11.46371584875141    5.89304027848381
H        16.57664439122983   10.86203233509824    5.17483729436690
C        14.21988242466849    6.51576050185786   -0.23439751985671
H        13.82732794088664    5.59766279176241    0.17828267972466

