43
CSD_code = RALTIH | q = 0 | S = 0 | Stoichiometry = C18H24Pd | MND = 6
C        16.68305335161483    0.60678795323297   10.38691287498777
C        16.29894882677370    0.57218741447122   11.72133656481488
H        16.34634448293828    1.45861647952967   12.34694187698403
C        15.83296143950328   -0.60547263448229   12.29320054355851
H        15.53977362870003   -0.61518969830377   13.33452086966725
C        15.74427844846953   -1.76011441518525   11.53975094800690
H        15.38389856940547   -2.67454278665635   11.99019457218771
C        16.10988441340762   -1.74267037976842   10.20300094606940
H        16.02644022003965   -2.64465438720202    9.61344250719154
C        16.56991867909887   -0.57015925419635    9.62995998707303
C        16.98788833533731   -0.39093624381670    8.18971317877586
C        16.28647079864172   -1.33449225129930    7.21003991417616
H        16.51905639361279   -1.04841575388619    6.18560247942114
H        15.20821862605708   -1.28564736450928    7.34599363837110
H        16.61028943375059   -2.36253816334889    7.35760317325933
C        18.51195334344599   -0.58481622556218    8.10328267424361
H        18.85749497125147   -0.43783598227118    7.08060291043265
H        18.79080112558990   -1.58646541578874    8.42632520833213
H        19.00652392761017    0.14999736712513    8.76025715999677
C        16.65718328138766    1.07868360269424    7.89140209219740
H        15.56552879227664    1.22153194576883    7.88003867925722
H        17.05799982090786    1.37278521659190    6.90684623613809
C        17.94697540466726    3.71416025464526   11.15162275518177
H        17.13530060856791    3.48935503486888   11.84392087246380
C        18.96362003671949    2.82643699153101   11.03912553546111
H        18.95477315045832    1.94458554241331   11.68514982222007
C        20.26422799196380    3.02427544451690   10.29827257165454
H        20.98598174203986    3.50975561372689   10.96517348197585
H        20.66478416352372    2.03063912546202   10.06381345185337
C        20.16572832831110    3.83039273135812    8.98500883699720
H        21.06029840350972    3.61329399665161    8.39546306710532
H        20.17417890283331    4.90127566610714    9.18854594775619
C        18.95108154119152    3.47721230585513    8.16189799952115
H        19.14964733208554    2.82751789966348    7.30686571052954
C        17.73566928311428    4.07775591634599    8.23175404624649
H        17.03711452786641    3.91873540198125    7.40553668917551
C        17.29524451926277    5.16467399388989    9.18215415187210
H        17.49557057926191    6.14254898823166    8.72891568667485
H        16.20635007552357    5.07720842690560    9.29296570213247
C        17.92592185923057    5.11214114529035   10.58831719333230
H        17.32474760934121    5.74517992117760   11.24638391614583
H        18.93296331829632    5.52812088059427   10.57914831970076
Pd       17.50770971241914    2.17299569566324    9.40679520686119

