59
CSD_code = RALVAD | q = 0 | S = 0 | Stoichiometry = C24H30N2O2Pd | MND = 4
Pd       -1.02930078304636   10.51768521135116    5.07734630121139
O        -2.08418728792142   11.66657222429238    6.56818630458530
O        -2.84665608083253   11.32346687442480    8.62475361241551
N        -2.54998752739630   10.73136563499167    3.69146813299854
N        -0.13221797392688    9.80746025904581    6.89441828740986
H         0.25822944529555    8.87015035235456    6.75136358577802
C         2.26915040543106   11.05521027374565    4.66643615196111
H         1.52996499191500   11.42439855856821    5.39058636009868
H         3.26806256020205   11.35897568445774    4.98722172585179
C         2.20851735300739    9.49589868143395    4.60822286544569
H         3.18508485144448    9.11279335862856    4.30556992960330
H         2.00198893660079    9.10365965624062    5.60450442014765
C         1.19375528842368    9.05882665364042    3.57526542232961
C        -0.12013661417596    9.53517078965287    3.58980796351057
C        -0.80452539664175    9.61673630423225    2.36981101799298
C        -0.19413653906074    9.24608943663954    1.16672410173074
C         0.97266676983078    8.49709281978007    1.24277376221010
H         1.40951793805931    8.08830708401089    0.34302923650408
C         1.65671242505109    8.40196049911898    2.43751382499546
H         2.62371453179869    7.91744138633776    2.45636068198046
C        -0.63365298018034    9.81448828600252   -0.15830247301461
H        -1.71921815517487    9.79341977705398   -0.25835610569553
H        -0.21871758452610    9.19720048943706   -0.95575445599691
C        -0.12779776378832   11.29607174360391   -0.35884667728913
H         0.45751581759247   11.33747398310709   -1.27780762373301
H        -0.98679795582896   11.95814598978959   -0.47908671842867
C         0.70706713451937   11.73707759564648    0.80953078712796
C         0.14527145691490   12.41135856034665    1.88978534828116
H        -0.78867563895125   12.94001271411585    1.75754183323524
C         0.71182450556744   12.31358497462400    3.15010435782020
H         0.19245392916950   12.73079441393518    4.01940258290167
C         1.90650196964696   11.61858039588499    3.32195670968545
C         2.61883282963051   11.25070131951487    2.18540585280321
H         3.60412302542163   10.82011894092847    2.28685508870572
C         2.01406075746767   11.28388962111638    0.94533846073774
H         2.52550496502487   10.86582365499030    0.09074193556350
C        -2.14999649973292   10.29952095487701    2.33948997858957
H        -2.09173474817328   11.17611716440914    1.69236635153624
H        -2.91468472099860    9.63200684913090    1.91491492388083
C        -3.50959963413681    9.77836686227173    4.26422644565067
H        -4.43338347586583    9.75736164500371    3.66698046261219
H        -3.76943922669693   10.07947212040743    5.28504993104343
H        -3.07340589911326    8.77203873875481    4.27416373041070
C        -3.14558634598075   12.06464271661154    3.68972514968423
H        -4.06027407439811   12.08764728279895    3.08201968532749
H        -2.43242244812748   12.78811364542860    3.29520712073902
H        -3.38882046130279   12.35159215754353    4.71465731332834
C        -2.18913250434230   11.02209202288421    7.64546140455001
C        -1.37535122766229    9.65383841659308    7.68441324793942
H        -2.01334784680795    8.86999755688615    7.24562257758765
C        -0.92778106570695    9.33038570819716    9.11543599512590
H        -1.57236598521123    9.87407006924835    9.80768578176568
H        -1.00521248229464    8.26496936347552    9.33606409610677
C         0.52971535221248    9.81501932333546    9.17683743545863
H         1.21548625400696    8.97083257171145    9.27409726454056
H         0.70572015591331   10.49155519882789   10.00956215036216
C         0.74727572081493   10.51826973568462    7.82811747446042
H         0.41448616564326   11.55862935796009    7.88735326970421
H         1.78914139138039   10.49195633492253    7.50597561814002

