71
CSD_code = RALWAD | q = 1 | S = 0 | Stoichiometry = C24H34N7NiO5(1+) | MND = 6
Ni        2.06232975271480    0.06321756102196    3.86023759525066
O         1.08359573720355    4.29451615721724    1.08327029212907
H         1.44506815531557    5.19551279290773    1.11421900245668
O         2.66871674685393   -4.31918124078137    1.21422760798293
H         2.32926750197720   -5.21793074692570    1.35756994161219
O         2.65602627437376    1.03801896388685    5.81434789243759
O         1.72414508581976   -0.87292618676997    5.91547615145183
O         2.32422162974164    0.11562496896451    7.71960823123696
N         0.58892531860582    1.10891935843168    3.95786941695338
N         2.72622253348932    1.54231972012816    2.50632460385498
N         3.54498857171493   -0.97371102437815    3.80540564305395
N         1.22784235175068   -1.49065081793521    2.70526832873567
N         2.23729919492361    0.09313463884140    6.52698963030675
C        -0.42741708425006    0.84828214560865    4.76994001701512
H        -0.37993418283683   -0.07996363519506    5.32852895427374
C        -1.49635357681876    1.71854624756863    4.92784022152967
H        -2.29480223265281    1.46808890847127    5.60721665559294
C        -1.50765876290738    2.90072307537997    4.20702708379437
H        -2.32156188090432    3.60154051954873    4.30621375458000
C        -0.44810143837585    3.17436499558839    3.35654100563729
H        -0.42507498781785    4.08008294419379    2.77384380119571
C         0.59238414578780    2.25917526792248    3.25886956722704
C         1.78154657979975    2.42695481670915    2.42676795406667
N         2.05989972238851    3.44370658943565    1.58214879125248
C         3.16606685384582    3.01815634400467    0.70098668218635
C         3.83586347001397    1.96443042270395    1.64691822495632
C         4.03557196941025    4.21176929583655    0.32849522735901
H         3.50247975588115    4.85344321428848   -0.37036929810352
H         4.94144831274517    3.86907513396979   -0.16228996104439
H         4.31109523578129    4.79718135261296    1.20046318509810
C         2.56253893934241    2.39884319074604   -0.56294106199732
H         1.94962525096995    1.53554521821418   -0.31295400131803
H         3.34267343419345    2.09767573589789   -1.25391986786436
H         1.92800306790527    3.13062054508933   -1.05864832765435
C         4.89188331426777    2.59700585028734    2.56092681690403
H         4.47896100659454    3.44593227257228    3.09864498591801
H         5.75924787165882    2.91230555279745    1.98987701227046
H         5.20919141394074    1.86178912063560    3.29434187290517
C         4.44343097310496    0.76961897797652    0.91846144920090
H         4.97760482786265    0.14386974483333    1.62844108480585
H         5.14893925136070    1.10919335337728    0.16567095140757
H         3.67814940382689    0.16510677536289    0.44067310086893
C         4.66605314758485   -0.66149676471096    4.44246198683896
H         4.68321746927813    0.29055013375743    4.96140338221348
C         5.76409795478831   -1.50901551161811    4.47431490470256
H         6.65119083631265   -1.21599169071427    5.01193874748956
C         5.69016891848043   -2.72363214698011    3.81355027081434
H         6.52445738348127   -3.40732953190324    3.81784115662589
C         4.51964770006244   -3.05201118398922    3.14796987528788
H         4.42692961953390   -3.98472480939004    2.61700822937696
C         3.45841232391854   -2.15581775105322    3.16814967458058
C         2.16022239137501   -2.37589667507410    2.53545677899274
N         1.76972795910852   -3.44215531437208    1.80426953271765
C         0.53583117357692   -3.07559403372078    1.08050068524313
C         0.00480817489307   -1.97056340849479    2.05541649620235
C        -0.36360487118229   -4.29379986722839    0.91715398556639
H         0.06398515849632   -4.97258395432331    0.18165287645066
H        -1.33966508788749   -3.98560024087997    0.55470935380538
H        -0.49181249428554   -4.82832254573355    1.85366430184653
C         0.92934303393614   -2.53048960646296   -0.29550911272266
H         1.56004596174502   -1.64990345312318   -0.19452309477711
H         0.04801384373189   -2.27646776205201   -0.87480669408404
H         1.49127224425683   -3.28739133369465   -0.83873981306560
C        -0.72760955492416   -0.82618885261880    1.36195007285576
H        -1.15286654404904   -0.16096543899342    2.10888628632872
H        -1.53734294612665   -1.21559028921695    0.75153120729589
H        -0.05617261388646   -0.24795050993720    0.73378783164341
C        -0.88486430520617   -2.55411113941589    3.15941049954038
H        -0.37846883902482   -3.36593849102756    3.67427497280366
H        -1.82575526108380   -2.90940735740861    2.75140485676196
H        -1.09481228550759   -1.77853859066898    3.88994052913242

