112
CSD_code = RALWIL | q = 0 | S = 0 | Stoichiometry = C57H47OP3RuS3 | MND = 6
Ru       11.49640751626936    6.67142528824913    5.90719424456447
P        10.72925241632175    7.98063238226403    7.62875565451953
P        10.29057898561658    7.71041023467653    4.28733091018035
P        12.49516997566885    5.11128105922178    4.56769517466839
S         9.77407634988058    5.08458828758959    6.60499990888585
S        13.22492282584206    8.32365388583551    5.41258694508191
S        12.73132639463233    5.56613901786825    7.63292608241309
O        14.86788763633427    4.98200205677645    9.57675773908932
C         9.19316951526359    5.73114027598390    8.10947405350764
C         8.30276414560109    4.95520284577692    8.85798088787488
H         8.00590455906027    3.99351842809408    8.46705175234923
C         7.82891261270152    5.40554795112200   10.06896408508673
H         7.14349461803668    4.79237325262442   10.63618699237450
C         8.24186076403011    6.63327052228695   10.57687237247336
H         7.88925519663799    6.97057791941228   11.54031143004735
C         9.11455588441187    7.41350462584495    9.84730761345394
H         9.47180721509456    8.35386807585404   10.24744213802001
C         9.57603604088216    6.98760536293795    8.60184916689093
C         9.97501610126730    9.62920974510198    7.42773151526433
C         8.79591564144676   10.02785566612299    8.04518963508234
H         8.22696759952282    9.32835545368084    8.63890429338179
C         8.33183201581382   11.32082136976546    7.88059076357017
H         7.41594028268686   11.62268596150716    8.36805809710066
C         9.02831026910326   12.22389025869079    7.09638336295421
H         8.66368910562063   13.23403124931590    6.97985350868128
C        10.18104814637941   11.82035528471866    6.44409108327252
H        10.71577871762849   12.50829553957987    5.80482408367502
C        10.64571333258789   10.52934160044995    6.60240797311457
H        11.52543587974273   10.20503706310143    6.06360586759287
C        12.02327629960243    8.36236981518663    8.87056626421470
C        12.25313874294842    7.48821257400674    9.93348069441183
H        11.60947153831275    6.63245787831313   10.08151628134621
C        13.29932400613384    7.70859913443082   10.81010407200813
H        13.46344049996656    7.02149996250222   11.62682394394049
C        14.13608698145654    8.79834988889080   10.63651922545165
H        14.95155848647665    8.97080678340028   11.32458942251625
C        13.91811504322502    9.66893455844749    9.58125532397354
H        14.56621208903196   10.52210870200996    9.43908508104547
C        12.87203055951939    9.45339946007658    8.70191537467253
H        12.71859802826405   10.13780704897692    7.88213772798250
C        12.61376085961659    9.19719541763406    4.04409889808745
C        13.42881789918200   10.17144404571038    3.45986846967213
H        14.39959060842823   10.35727881585404    3.89485984903597
C        13.00376054896319   10.86474980344895    2.34904350012667
H        13.64649046632484   11.61274567230640    1.90720990128600
C        11.76113724626949   10.59835512627435    1.78367570900194
H        11.43912380059758   11.13176662119105    0.90159565445499
C        10.94211309601105    9.64410826460584    2.35328664885683
H         9.98384926636243    9.41089892920212    1.90730410340500
C        11.34649043183489    8.94885097847726    3.49169753911513
C         9.60933177285607    6.79750275907590    2.85669708153124
C         8.34055441671330    6.22909739718281    2.91334562271541
H         7.74264174034416    6.33280077729511    3.80609258758858
C         7.83663621907953    5.53752095142362    1.82758875756554
H         6.84659111678112    5.10814997545929    1.88061995086248
C         8.59132159819802    5.39829409925163    0.67536812315151
H         8.19187493182354    4.86578625508465   -0.17522407139832
C         9.86293399740857    5.94244082846441    0.61878107839757
H        10.46139928401763    5.83207783644068   -0.27401056507997
C        10.37158467941008    6.63017227530918    1.70370293244047
H        11.36326559942716    7.05741943514768    1.64624669520080
C         8.78202470164280    8.60143753309340    4.80456003261407
C         7.92379729505130    7.90440417535819    5.65226697340056
H         8.20558462966810    6.91490850300799    5.99080106522008
C         6.72885974187817    8.46598993278843    6.05901133988447
H         6.06993133010411    7.91276557373968    6.71299206142539
C         6.38504354735502    9.73777576620467    5.63224258527366
H         5.45207733664129   10.18212225310608    5.94713768176260
C         7.24703598269288   10.44555975391936    4.81224537826907
H         6.98943191733141   11.44549077013709    4.49368029073967
C         8.44173410809753    9.88468629805145    4.39654242668267
H         9.11186024312901   10.45539108154566    3.77102147612285
C        13.02262192226476    3.91888840115465    7.00078959528090
C        12.90211974104401    3.68491772831257    5.63594439455722
C        13.11004008040174    2.39608075438197    5.15562168563968
H        13.02392449919156    2.20001503386118    4.09633527437274
C        13.41760549410945    1.37228840535100    6.03427891438493
H        13.57079839078055    0.37273488010219    5.65457029143747
C        13.52325990483261    1.62014733291124    7.39411818797554
H        13.75575928834309    0.81565797735847    8.07536558237842
C        13.32276405313189    2.89890721193612    7.88582781418943
H        13.40558826173436    3.11448279102205    8.93950103708837
C        14.14031878334713    5.52011409784640    3.89628665370056
C        14.18898469225768    6.55511561504980    2.96495177083240
H        13.26195178822805    7.01573096544652    2.64870601261397
C        15.39720939112377    6.99222099339139    2.46120928436861
H        15.42123852053693    7.80048899114331    1.74489318959383
C        16.57564323052277    6.40048106282646    2.88919796440261
H        17.52450029892121    6.74376933186442    2.50392070022105
C        16.53650276456655    5.37025421601033    3.81294045921852
H        17.45432585149107    4.90559155189903    4.14488139528014
C        15.32539863792851    4.92985038020455    4.32103852473506
H        15.30744470460684    4.11790242293217    5.03737680750241
C        11.72520238317460    4.21363228592335    3.18476362364771
C        10.44368687243032    3.71922753935795    3.41348341632543
H         9.94813965232197    3.94570540839243    4.34848836671631
C         9.81921401222455    2.94546942830056    2.45543531109596
H         8.82835308726514    2.55790961964096    2.63954195444059
C        10.46504390055908    2.66645171364956    1.26142503531814
H         9.97812675547188    2.05970050019615    0.51198336068004
C        11.73465684398310    3.16610148973900    1.02704831535265
H        12.23842003601927    2.94937414563576    0.09573319639528
C        12.36993451793997    3.93672719128668    1.98484230216290
H        13.36509418325001    4.31675539740157    1.79952897036652
C        14.42796711550723    6.23500131043845    7.59035357659034
H        14.90645126116063    5.92397121112694    6.65882132017060
H        14.32626178843138    7.32237822545177    7.57040542330175
C        15.23770788434101    5.81278266850209    8.79034098412292
C        16.54210817766046    6.55384401242665    8.91296541559321
H        17.19902267894293    6.04669622946470    9.61464613993613
H        16.32731592220345    7.55306740685982    9.28981857150066
H        17.02486019549696    6.65460969467179    7.94464865236539

