89
CSD_code = RALWIK | q = 0 | S = 0 | Stoichiometry = C32H50N3O3V | MND = 6
V         3.63103801017346    5.24159423496791   11.48818110517238
N         2.21249241620578    3.25763462161308   10.42611139071967
H         2.16799552651789    3.16655543676243    9.41234925342369
O         2.05820269139706    5.18973394850601   12.24525752041527
N         4.16789022672886    3.44892678492551   12.50925804060152
H         4.14816938137820    3.79761834024898   13.46441865060287
O         3.14093689334536    6.25282612782330   10.15189062129308
N         4.80382928400229    4.52367732281329   10.30122595251810
O         4.45998604061270    6.01574109308580   12.51613840909609
C         0.91832515325702    4.68071804111829   11.87975416015483
C        -0.32403708806573    5.13197954095105   12.38287470447871
C        -1.47840324018625    4.52096634259565   11.91973356887558
H        -2.42193745429743    4.86908616699604   12.29805254864174
C        -1.47896527446156    3.49077937198563   10.98423563039579
C        -0.25053636901451    3.06037909795053   10.49442532889154
H        -0.19487780205152    2.27690934447639    9.75020053717716
C         0.92387479835264    3.63988976121619   10.92956290973134
C         2.76558593279659    2.03984602287060   11.00323789496975
H         3.59170419271995    1.70331559727760   10.37100479894309
H         2.02059230027475    1.22523515239293   11.05234086252377
C         3.26571758467826    2.30506539982339   12.42821335329952
H         2.39398095317054    2.52387779701805   13.05465609432270
H         3.74995926498162    1.39247838754871   12.81157353792561
C         5.56529903735996    3.22005058222242   12.13717177556338
H         6.16533880832191    3.94278236694657   12.69660431723612
H         5.88770520953915    2.19873702058329   12.38817111912460
C         5.75337845003753    3.50572708394282   10.63689128420511
H         6.78711178999236    3.83304164962604   10.44983279069190
H         5.58175183266473    2.59098355445388   10.04578031945989
C         4.33208657018680    4.65425090893492    9.03510542501784
C         3.36306010726954    5.69944509577924    8.98395792197481
C         2.76816927401940    6.05242456979009    7.76555562964451
C         3.16440786997164    5.34815942420899    6.63296495830823
H         2.70841928036057    5.60389416827674    5.69466143935826
C         4.11907940841214    4.33264377822153    6.65724686682724
C         4.70033839442637    3.98404700782408    7.87144683357043
H         5.43787159247735    3.19597912153984    7.91821493108963
C        -0.33568968089083    6.29345256476841   13.36677686649948
C         0.48723261962911    5.91643990158115   14.60800863391439
H         0.09749318027728    5.00477776915715   15.05934128444142
H         0.43548573649267    6.71589491850175   15.34398944258677
H         1.53180438982677    5.76529857697852   14.34078739791388
C         0.29220745049510    7.52140133879297   12.68899492643472
H         0.28692709098724    8.36588502226105   13.37517860120472
H        -0.27740250102500    7.79214997856741   11.80160918096940
H         1.32484405523022    7.32234163479969   12.39818084488334
C        -1.74969623713117    6.66549633191634   13.82421964445813
H        -2.23276988107514    5.83186512231864   14.32968166392831
H        -2.36490378957886    6.98052707338232   12.98458993927863
H        -1.69215390926058    7.49526295914492   14.52558088794957
C        -2.75531690206066    2.84146947983053   10.46964037605992
C        -2.71050124000879    1.33504925317361   10.76456314941553
H        -1.87019643400375    0.85733009108760   10.26823850348098
H        -3.62450317709089    0.85695238167465   10.41833367007390
H        -2.61626291309709    1.16533612047342   11.83520050161745
C        -2.85469033300095    3.07160271621738    8.95471319596447
H        -2.01702392538541    2.62108432442378    8.42920154614279
H        -2.85851014302267    4.13772575332255    8.73821574516394
H        -3.77322100199661    2.63582551879041    8.56692158196546
C        -4.01757779250112    3.41296649667015   11.12050721228252
H        -4.12167118911741    4.47387717884323   10.90695496915006
H        -4.00432296006465    3.26410270169897   12.19761945923183
H        -4.89268213567290    2.90343155004731   10.72168334537151
C         1.69774402766389    7.13359425924222    7.74774771447049
C         2.30450604353226    8.43890758371515    8.28018237791262
H         3.12162841506447    8.76221688010761    7.63790966263374
H         2.69016888445808    8.29699784364328    9.28761267613165
H         1.54927424971862    9.22229533457091    8.30350667999852
C         1.13506245865448    7.39344454748026    6.34754532309992
H         1.91687674008143    7.72098228122091    5.66615091040620
H         0.38558145003802    8.18059641174275    6.40249669147394
H         0.65787098546696    6.50352979084379    5.94251408821267
C         0.54469082642358    6.69156964284938    8.66189709592248
H         0.89808550281453    6.55210930802511    9.68160416732068
H         0.11670406635453    5.75231323746843    8.31253103565969
H        -0.24005897948156    7.44580941462378    8.66900627494775
C         4.54672196343220    3.58618365855473    5.39927377334226
C         6.05729884285052    3.77057317406472    5.19621973941225
H         6.29468145072622    4.82816189224933    5.10631645295374
H         6.38018705830996    3.26410817599944    4.28859924957201
H         6.62289178631893    3.36646324751290    6.03098679499042
C         4.22441972468975    2.09337600608326    5.56303636594473
H         3.15659745172497    1.95492514317427    5.72187218610342
H         4.75498733811541    1.66386207465590    6.40865340430779
H         4.51306456578925    1.54560534809437    4.66817451271542
C         3.83930773856920    4.08527715303844    4.13632418558499
H         2.76323205586194    3.94389707933885    4.20561991642774
H         4.19654254189641    3.52264420728292    3.27566362230809
H         4.05099338643866    5.13710927868556    3.96102004152583

