59
CSD_code = RALXAD | q = 0 | S = 0 | Stoichiometry = C18H35ClINP2Pt | MND = 4
Pt        2.76250490507300    3.77467803825147    1.35232386376074
Cl        1.66628572008735    3.77452689729377   -0.69509128992058
P         2.71279226786100    1.48559484361152    1.26135172666976
N         3.64967902991226    3.77473959664691    3.17774334569597
H         3.11890589349174    3.77439667014113    4.04080639549210
C         4.97911013951794    3.77486374136000    3.31741778850436
C         5.62343997084901    3.77466779536275    4.57146220092144
H         5.02467811169753    3.77438619080649    5.47218535730441
C         6.99697611165178    3.77483609278115    4.66496503453358
H         7.46730871104733    3.77470230061812    5.63715615093128
C         7.76895321639566    3.77519985374507    3.51587972522142
C         7.17132874234265    3.77539905591635    2.26564222665446
H         7.77548162233862    3.77568330059174    1.37034249864854
C         5.80068519542693    3.77524031888263    2.17109645072766
H         5.31216924461096    3.77542194430481    1.19907839956799
I         9.89020291924397    3.77546266792836    3.66865699690843
C         0.98990460851566    0.85539295260659    1.37769355484079
H         0.48105631294369    1.20086483976816    0.47354750016298
H         0.97585458280470   -0.23718763094960    1.38371660468080
C         0.30093983705740    1.43344224783992    2.60778286774192
H         0.73775647625746    1.04174874828996    3.52429174118016
H        -0.76170273066650    1.19987674113040    2.60561792198906
H         0.41753474400121    2.51974756732211    2.60715802840039
C         3.28698877395412    0.74157686252172   -0.31744998673459
H         3.23094133797279   -0.34806461550298   -0.25152639125725
H         2.58928634646225    1.07712293526084   -1.08910198732886
C         4.69493406696742    1.21089013126679   -0.66149157192202
H         4.69965202570105    2.29629740373902   -0.75775128705748
H         5.02337862994127    0.78303453750367   -1.60655373468927
H         5.40668225853312    0.92995572308363    0.11266604918195
C         3.64693542288948    0.59978234242072    2.58369578761202
H         4.66896785859599    0.98765972105320    2.55521265851195
H         3.21594760243945    0.93068092832070    3.53234988599261
C         3.65494003622764   -0.92070450033465    2.51018357722196
H         2.64486350015029   -1.32439568587270    2.51246600491121
H         4.17898802810695   -1.32461102982626    3.37444058929683
H         4.16732291129174   -1.27035322322982    1.61751452109851
P         2.71276406068321    6.06381820331124    1.26151776190260
C         0.98996267438381    6.69392275960745    1.37979228782681
H         0.48011069557070    6.34836613775611    0.47624006097217
H         0.97583585133430    7.78650177078826    1.38576364192527
C         0.30246127973273    6.11589893494153    2.61071602615562
H         0.74015656094208    6.50787656639738    3.52668206321751
H        -0.76024474432507    6.34918186973107    2.60965387930597
H         0.41935686593594    5.02962320719989    2.61018906813232
C         3.28526871564950    6.80799846419542   -0.31782470583910
H         3.22929988209481    7.89763300158658   -0.25174476435127
H         2.58677003650143    6.47251361420158   -1.08878370873604
C         4.69285295797758    6.33866494160969   -0.66333181247573
H         4.69743362641497    5.25325023267937   -0.75958270323617
H         5.02030627870766    6.76648966634255   -1.60875278194528
H         5.40541717174960    6.61961733855438    0.11007404773785
C         3.64829366682554    6.94954149013002    2.58294351480051
H         4.67023391476646    6.56149416983685    2.55354079216658
H         3.21812978563774    6.61876293761824    3.53201084478241
C         3.65647746920335    8.47001732037592    2.50929639536983
H         2.64646091810852    8.87385289957371    2.51226235200265
H         4.18121021875269    8.87392119222753    3.37313735703187
H         4.16826768166926    8.81949697665878    1.61622117782943

