48
CSD_code = RALXUX | q = 0 | S = 0 | Stoichiometry = C17H26ClNO2W | MND = 9
W        -0.35911982868179    1.66957765896863    4.24703328505539
Cl        2.02720536840913    2.35477212315196    4.53905938792811
C        -1.19010734829354   -0.18449904382248    5.36307196933847
C        -1.54060094771148   -1.53716557073038    4.81265324713680
H        -0.65061462627781   -2.14114794767392    4.64474006057814
H        -2.08390511703327   -1.45511547699822    3.87092535344268
H        -2.17742644804796   -2.06932250699782    5.52272820930263
C         0.01650395398488    0.20476049244875    5.99128723076667
C         1.23850523880360   -0.63091616857575    6.23463721916011
H         1.23742621829410   -1.52952385819280    5.61927905627513
H         1.28330647584760   -0.93556835834459    7.28245515540319
H         2.14033205883352   -0.05886601079231    6.01093986550199
C        -0.18755646616981    1.50256474548824    6.58283679142993
C         0.76567939186321    2.14941091329404    7.53877826104514
H         1.77796361156526    2.15936825391845    7.13518210238092
H         0.77876126369031    1.59112922317405    8.47781887140896
H         0.47368264997162    3.17571749503711    7.75169436290161
C        -1.50973013707844    1.91840922817747    6.29869563425913
C        -2.20130653692564    3.13162597104545    6.84788572181719
H        -1.50028725481134    3.95123932991856    6.99692964370066
H        -2.66002260391342    2.89478848093123    7.81080778035212
H        -2.98484550539072    3.47438207775336    6.17407818352209
C        -2.12727585782698    0.89929641915180    5.50687841604320
C        -3.58577627674394    0.82516318750928    5.16561710053690
H        -3.75189689732223    0.19731378093858    4.29208990745186
H        -3.99058169878645    1.81368526152640    4.95553326782920
H        -4.14374795610144    0.39991347298138    6.00291497588991
C         0.65460266845870    0.52481796270725    2.79963932907697
H         0.59521056509002   -0.56317871312032    2.96087249141399
N         1.41924746521113    0.78424731393705    1.78053391574671
C         1.66683726099839    2.12925556033687    1.28980372751246
H         2.73871074803959    2.23451804322708    1.10519799113469
H         1.37870619264617    2.83982046426822    2.06665229498838
C         0.87899053571245    2.41552929088105    0.01404457990365
H         1.07054753520410    3.43635848572341   -0.30237530498957
H        -0.18571561808550    2.30722618330489    0.19875145950105
H         1.16316846175011    1.74611648155393   -0.79513120797020
C         2.16729676039856   -0.26465817595340    1.10033530596600
H         2.36893047407789    0.04851507201849    0.07476863896406
H         1.56269123771238   -1.17532167126489    1.06945292575158
C         3.48012046460032   -0.53887023300277    1.83037102604880
H         4.03804556727965   -1.31981380697319    1.32071652849920
H         3.28287412451655   -0.85347442171266    2.85209234627890
H         4.08990008489101    0.35977954257981    1.86959467074226
C        -0.51636437713323    3.51067177788487    3.58528598200573
O        -0.68848411676951    4.57597550683538    3.16622503076766
C        -1.48807223600342    1.76553623112907    2.65599538319799
O        -2.09400852267935    1.85185593234201    1.66692182498136

