79
CSD_code = RALYOU | q = 0 | S = 0 | Stoichiometry = C43H31IrN2O2 | MND = 6
Ir        9.81705408032597   -0.07099624754905    3.64932172123391
N        11.52690630616693   -0.08595819815369    2.63362622099952
O         9.23400864763357    1.58398450652454    2.28972140605475
C         9.37333241627016   -1.49621559471744    2.30378457486238
C         8.21345930227791   -2.25318661417717    2.18123460234143
H         7.43040703275409   -2.16616355942713    2.92224352004099
C         8.03533193836013   -3.12963129056022    1.12382253941791
H         7.12431984457414   -3.70723118517727    1.05143104137191
C         9.01790678882009   -3.27159381326757    0.15554217429661
H         8.87298164963698   -3.95528551664818   -0.66833767989371
C        10.18189674371910   -2.53694269176375    0.24825318450728
H        10.94387200740290   -2.65101587216361   -0.50906680554085
C        10.36513808427322   -1.65525326663064    1.31265635193126
C        11.55793805684355   -0.84459177061175    1.50893181316707
C        12.65952110144887   -0.81941711410347    0.66352328985622
H        12.67419727375696   -1.41948014293939   -0.23209513909038
C        13.75493266625383   -0.01173870913670    0.96480335839897
C        13.70373482079684    0.75347729834516    2.13742409766603
H        14.53098973019384    1.38735223549500    2.41482970056960
C        12.57891703253072    0.67778692163202    2.92732294476414
H        12.51334938201726    1.24857681259166    3.84354774041970
C        14.87979864869287    0.02361652279478    0.12004380222772
C        15.84606287836573    0.04534384872244   -0.60562850824375
C        16.97470390092800    0.06452048657010   -1.45067371201445
C        17.99157220008580    1.00009488569023   -1.24731581156872
H        17.90333966844616    1.71175466565548   -0.43932812690080
C        19.09564670459245    1.00956014327682   -2.07676273036582
H        19.88029459318938    1.73481679340199   -1.91738582084457
C        19.20060200971706    0.09219070265898   -3.11082944858370
H        20.06670045393297    0.10237327093386   -3.75581689327251
C        18.19391387160582   -0.83847084318457   -3.31689141293836
H        18.27649527372724   -1.55312692243400   -4.12278186883828
C        17.08422835584830   -0.85627798889034   -2.49522391627168
H        16.29607169029906   -1.57879976856963   -2.64933641124377
C         9.34593290110765    2.81595028986111    2.49430241187266
C         9.81623684058940    3.44547916810780    3.65091611435592
H         9.81581753066269    4.52578001796925    3.65143235635311
C         8.90456142193050    3.73595991384029    1.36730740287220
H         8.57919944074146    3.14201463890707    0.51654786052726
H         9.72868801684744    4.37872684686936    1.06490722079214
H         8.08362139710485    4.36786582284928    1.70127592040800
N         8.10737086642468   -0.08612009138781    4.66513780876980
O        10.40028277424038    1.58312928263206    5.01016065758736
C        10.26061497302747   -1.49699055811331    4.99411535119768
C        11.42009753779033   -2.25468379401453    5.11591083400678
H        12.20260088889698   -2.16835869952468    4.37423930127918
C        11.59850529659438   -3.13101365372592    6.17337690123592
H        12.50921440644211   -3.70916714275684    6.24518259857497
C        10.61666185630092   -3.27205012689327    7.14253255149068
H        10.76196669527779   -3.95537961168311    7.96664873192031
C         9.45291013781151   -2.53694510704313    7.05038869114575
H         8.69147774184506   -2.65033943614419    7.80835888502338
C         9.26929637055161   -1.65554196608020    5.98581026764778
C         8.07659378951514   -0.84464311187202    5.78991246584021
C         6.97525967650954   -0.81923705847139    6.63563486553685
H         6.96063018140099   -1.41943505985875    7.53116379372578
C         5.88005202000942   -0.01109635228784    6.33482376581380
C         5.93090700680312    0.75383652876963    5.16201659133104
H         5.10372318636919    1.38789906575344    4.88483192945439
C         7.05534066655057    0.67764754438816    4.37161623658488
H         7.12059337799564    1.24809614826141    3.45515552340651
C         4.75577585156616    0.02483409677418    7.18033208230176
C         3.79052209153433    0.04733428737924    7.90733240260619
C         2.66278401528186    0.06629995736029    8.75357227651766
C         1.64576347381898    1.00210540769676    8.55207366872029
H         1.73329356235320    1.71471991058878    7.74484686568159
C         0.54228344626236    1.01048032443443    9.38234180825010
H        -0.24256382428813    1.73582089462637    9.22432712024876
C         0.43810995524775    0.09188641416693   10.41539608320618
H        -0.42763557049148    0.10108241665788   11.06087663026623
C         1.44514940274365   -0.83875013809162   10.61983999598878
H         1.36323058958692   -1.55433281659228   11.42497666371868
C         2.55422570542047   -0.85548429881747    9.79735402208164
H         3.34262883162592   -1.57803267668480    9.95007636184924
C        10.28738497921266    2.81520809112513    4.80678643027798
C        10.72894972107829    3.73455343986615    5.93424480479702
H        11.05041184820335    3.14023575109508    6.78620949342756
H         9.90651475596114    4.38060147548073    6.23413395377690
H        11.55298901004941    4.36318198038134    5.60168249901382

