48
CSD_code = RAMCUE | q = 0 | S = 0 | Stoichiometry = C19H20CdN6S2 | MND = 6
Cd       -3.68633151421002    9.81869562558139    4.89065720037482
N        -5.41893150682645    8.04454310691987    5.31704077530011
N        -3.28739515922425    8.39055650304824    6.97000373682717
N        -4.44722404024401    9.79623139950187    2.95745031786173
N        -1.71375293094209    9.84206680095089    4.30543177016605
S        -6.49781599798526    9.80623716734938    1.10560695535046
S         0.66719918237696    9.84260891291400    2.91802745842037
C        -6.54502054199189    7.99705206263837    4.62551272587940
H        -6.56681298393420    8.56748002083214    3.70794487824472
C        -7.64655298022688    7.24660631455976    5.01585520967580
H        -8.53596465153696    7.23182940090619    4.40696525425275
C        -7.56929279359019    6.53386566812907    6.19947303708969
H        -8.40938223623151    5.95723874355542    6.55754987185676
C        -6.38523108334412    6.56469537064506    6.91681284777205
H        -6.30859390980795    6.02653663478706    7.84814953200589
C        -5.31504979604241    7.31827738629135    6.43226346272388
C        -4.02219129232090    7.36845593231784    7.14609550878870
C        -3.67005965810027    6.22354989447440    8.05442872723617
H        -2.61981519869980    5.96545355433417    7.92387932711665
H        -4.26679688540930    5.34199418742194    7.84594980244359
H        -3.80866380039996    6.51290475946824    9.09695496241959
C        -2.06656044916000    8.53342770708636    7.71653114682936
H        -2.30055312040530    8.51448600896969    8.79164722241047
H        -1.39891986559187    7.68407022046182    7.51363163834899
C        -1.31657238149405    9.81439717466410    7.36941687041565
H        -0.36981704883350    9.81441160319756    7.91326458912130
H        -1.10356802105830    9.81614663826054    6.30019115345210
C        -5.29459841758323    9.80049635389675    2.14166245150763
C        -0.72455295352856    9.84148027497524    3.66202469842234
N        -5.40524207665875   11.60117456385346    5.30018025167630
N        -3.28748433436547   11.23843825574896    6.97051546868839
C        -6.52705778110554   11.65409164451738    4.60192061430239
H        -6.54171243759827   11.09359886060751    3.67798860885887
C        -7.63271477984475   12.39752006662165    4.99398807309171
H        -8.51880220433323   12.41616795503347    4.38039029665365
C        -7.56400466878356   13.09821851794500    6.18533324736323
H        -8.40760258861605   13.66905519660220    6.54446126919582
C        -6.38385705212957   13.06323634763061    6.90890982626342
H        -6.31307591293976   13.59275507619759    7.84567659871216
C        -5.30964825026923   12.31615055849203    6.42338498968107
C        -4.02052280373656   12.26209916053066    7.14381780502419
C        -3.66976167651191   13.40640669317746    8.05345692909970
H        -2.62009264761991   13.66673086107009    7.92166499759892
H        -4.26865372722023   14.28707933746495    7.84720166385165
H        -3.80593452879974   13.11503292806612    9.09580437643001
C        -2.06840676620985   11.09359403382376    7.71946241850640
H        -2.30489293118977   11.10880173099459    8.79406697837441
H        -1.40091079572081   11.94405278348085    7.52095245431147

