64
CSD_code = RAMDUG | q = 0 | S = 0 | Stoichiometry = C24H33Cl2N3NiO | MND = 5
Ni        8.84388705233789    3.26041586614910    1.05670984595816
C         9.32384525225534    6.27694005911287    1.65567581560288
Cl        9.92197364503138    1.66714190584601    2.04817316351367
C        11.32233310930352    5.85983523311207    3.16253889445683
H        11.65417408906584    5.23937199410710    2.32560230672879
Cl        7.61431486335412    3.59311243240712    2.61249237116470
N         9.92628714520560    3.03454957001742   -0.43467301977213
O         7.71280770120213    1.67725356633558   -0.20793487453144
N         9.68169400883136    5.21510705779720    0.82866371650683
C         9.85881007317252    1.89443932453742   -1.12381349264685
N         8.67981251410143   -0.23066094669341   -0.94130168469608
C        10.69746052191982    5.19746737272205    0.03999642989929
C        10.83923135123131    3.96963402256188   -0.73865775008832
C        10.75513159006295    1.60804944335187   -2.14036827213733
H        10.68244129316409    0.69203968417167   -2.70525453792321
C         8.66281344986046    1.08590616650455   -0.71529304294794
C        10.11148404976238    6.66390727887509    2.75081942888886
C        11.78490425362269    3.73574635501559   -1.73734462346860
H        12.53168714049126    4.47872665287212   -1.96599879366070
C         8.07265615961598    6.86905046736683    1.40934569164501
C         7.67737485346725    7.92995715303819    2.20542455802595
H         6.73426065619558    8.41837554731937    2.02169408889120
C        11.74531740634923    2.54082581086249   -2.43221371507771
H        12.46747131421867    2.33904448284354   -3.20850178707137
C         8.47316055135079    8.36239470984378    3.25113331859074
H         8.15154262049774    9.19012343465242    3.86570645204441
C         7.59873912643939   -1.08360235567405   -0.49234457062187
H         7.08256240828061   -0.54803787579583    0.30835006431692
H         8.02275515455325   -2.00333109256057   -0.08794308698412
C        11.64536684466019    6.33750953765506   -0.16814585018424
H        11.33197621772656    7.19716524236830    0.41945786019553
H        11.66545527038208    6.61463753444642   -1.22179625093274
H        12.65458685035814    6.05557114377518    0.12880854325962
C         7.22541211959216    6.34056009121548    0.27702195538911
H         7.42416514174764    5.25641295506168    0.19845744433916
C         9.65924577963841    7.71335886780295    3.53670611871619
H        10.23932281536018    8.02511041087955    4.39090303401888
C         6.60642753617024   -1.38570340954432   -1.61786054034748
H         6.15877159712434   -0.44420717406619   -1.94110050839153
H         5.81216734838912   -2.01284170134539   -1.21063807664956
C         5.72901792698520    6.50770690760911    0.52472598988676
H         5.46935357698785    6.11844566197586    1.50572777860009
H         5.17098509677383    5.94982817464800   -0.22419354381122
H         5.42655566305636    7.55081452513747    0.46060269297405
C         7.78014473487042   -3.46803355026733   -2.50875228524094
H         8.13680125882184   -3.94987220051719   -3.41619052250524
H         7.00042335646219   -4.09044787517915   -2.07612613062677
H         8.60826097450972   -3.41948132456323   -1.80616978047706
C         7.23466929941204   -2.08049640965548   -2.82698900549191
H         6.47041926842239   -2.17305115939847   -3.60157803954510
H         8.03308159526906   -1.45497753056539   -3.23337750970351
C         7.63088647834621    7.00108950408472   -1.04424533462817
H         8.68355560646408    6.82998672003527   -1.26239864478844
H         7.46205478772081    8.07551827413498   -0.99269963424462
H         7.04036744819005    6.59777856055024   -1.86419568505501
C        12.49962462579696    6.73441164857811    3.59532685670516
H        12.72492356802099    7.48681514574911    2.84105518108134
H        13.38242482437110    6.11550293619005    3.74075156079701
H        12.28984320633555    7.23999015295309    4.53393245085318
C        10.89673482345335    4.90699642397620    4.28440512896216
H        10.53646958904605    5.46326472086605    5.14640367471788
H        11.73523313406587    4.28498416607911    4.58874312447007
H        10.09611130293424    4.25778725286276    3.93450098447460
H         9.52002697760412   -0.66511754423978   -1.28505593143095

