47
CSD_code = RAMDEP | q = 0 | S = 0 | Stoichiometry = C8H16B2N16NiS4 | MND = 6
Ni        2.82951890979251    6.28692412531387    3.15096016721211
S         3.86013037423002    7.93654799160251    4.76209328123332
S         4.66314214126213    5.07354750160348    3.16441100101217
S         1.00566079758006    7.51413067125992    3.21817390458479
S         1.82029815670113    4.61216369680323    4.73609144123625
C         4.11397222054420    9.22857388597082    3.73851568011908
C         3.80781897330386   11.06619974251362    5.40962004538765
H         3.00062111562021   10.49127646089535    5.86487783511927
H         3.52136105032038   12.10929798361454    5.29674122993035
H         4.69302038459587   10.99389318013872    6.04465871100176
C         5.85083375603843    6.08183847705209    2.55053195300706
C         7.80384038668257    4.66706057116262    3.22361722616281
H         7.41148567624861    4.52391989910552    4.23152252943071
H         8.87501696489208    4.85184549997714    3.25380372047796
H         7.59600454183871    3.77135115782285    2.63559512418911
C        -0.19875548059031    6.55872188404328    2.55550085004103
C        -2.11982362919390    8.01587666138580    3.23051167424808
H        -1.76675759849466    8.10525351417194    4.25901498584467
H        -3.19816673408562    7.87772113572880    3.20861519425505
H        -1.84758882688609    8.92191458901373    2.68631788923184
C         1.47231257297445    3.35400333552866    3.69826969962987
C         1.68408706789777    1.48440116275340    5.34839173638478
H         1.76527201842497    0.40582804286678    5.23654941342302
H         0.87028897768562    1.72756855457263    6.03428719155048
H         2.61128259427537    1.90070605400358    5.74483270591618
N         4.08103869786807   10.53646614422995    4.11166755617478
N         4.34703883174341   11.28770744139522    3.03576122306186
N         4.53462130537753   10.53364997635588    2.05501305930080
N         4.41145696068510    9.25876180107799    2.41746039729170
N         7.17978896262057    5.80488252788301    2.62686341679881
N         7.85055706649496    6.80256321493955    2.03854972909230
N         7.02595790776186    7.64523480036645    1.62005062500032
N         5.78193910081694    7.26176144885591    1.90019418227781
N        -1.52006955809809    6.87406324349695    2.61661747176059
N        -2.20972883930233    5.91301977360208    1.99016171146994
N        -1.40336290474893    5.05711310396308    1.56343563389625
N        -0.15345644247513    5.39485084170544    1.87512308319860
N         1.42818205523235    2.04269327355735    4.05894129688956
N         1.10020727573192    1.32014338547943    2.98060699629386
N         0.94614011935110    2.09404385657153    2.00980721443392
N         1.15462214670271    3.35545684925734    2.38151315648393
B         4.53594443454549    8.06827844505809    1.46455165551717
H         3.55381570704347    7.32716015703495    1.65289843319339
H         4.66060902759048    8.45008379949680    0.36021933847500
B         1.07485740400358    4.56006976231591    1.44082201340062
H         2.07521835232510    5.27016001109866    1.64485128399931
H         0.94704597697731    4.19407036330588    0.33158533130010

