50
CSD_code = RAMDIU | q = 0 | S = 0 | Stoichiometry = C20H23BrClN3OPd | MND = 4
Pd        2.34145332722441    6.42288148464860    5.51767276241349
Br       -2.98201545187510    3.19545878994719    1.77590069289898
Cl        0.16267047404365    6.62791821719441    5.84274344455111
O         5.02677107670944    8.00327310462192    8.09314971852041
N         2.28091064257784    5.40606235224950    3.75438081435872
N         4.16952059552618    6.39126229872001    5.09935786259131
N         3.02326911930024    7.39184291662713    7.14050478982154
C         3.66613842023467    4.52112376080807    1.91932716271620
H         2.73637489943699    4.08301875189676    1.56321453687821
H         4.39910169156762    3.72988394483940    2.07105087513668
H         4.05673821759155    5.19390004001801    1.15632536840004
C         3.44150295026360    5.26549887573641    3.19605512019184
C         4.55472311871709    5.86706774822995    3.92169684233740
C         5.89451189591361    5.94578579410584    3.53746456179954
H         6.22068276229158    5.52966501800454    2.59776014961840
C         6.79277704888759    6.57780463546783    4.38456450063146
H         7.83332211556285    6.64602995494698    4.10640850052249
C         6.35510889748156    7.13357105917154    5.58217398759136
H         7.02067260320399    7.64387153919704    6.25924419594446
C         5.01029615406033    7.02589581620996    5.91073224350153
C         4.35727144485863    7.53568633053621    7.17980427938244
C         2.27014304435938    7.61049072828750    8.35599501369305
H         1.34708121179454    8.14589497765986    8.10842961342568
H         2.87036890828360    8.21103437097213    9.04775538694398
C         1.92733343011353    6.25083900379231    8.97980093710700
H         2.84808290410571    5.78809668588392    9.34549662043031
H         1.51144653374654    5.60884913324159    8.18423101882885
C         0.91839366182995    6.37327346075027   10.11602741305211
H         1.32389015260127    7.03203768461009   10.88715608095432
H         0.00375038684688    6.82820107335487    9.73135647441522
C         0.59096332862767    5.01556645111372   10.72517220264169
H        -0.12434951970516    5.12320640058410   11.53710674757113
H         1.48980700711500    4.54606652919391   11.11975746860920
H         0.16053290808379    4.35762525458795    9.97343207196997
C         1.08181881073950    4.88044545442884    3.25693259148411
C         0.35519327312544    5.59906057831674    2.30194262314295
C        -0.85796005720424    5.08787048474367    1.87135313873820
H        -1.43908777025007    5.62245810368926    1.13605071528732
C        -1.32987371954775    3.90147159558486    2.40417196058778
C        -0.64339609149740    3.22703310677915    3.39878494251886
H        -1.05907488184379    2.33162973139697    3.83403296058224
C         0.56990092641499    3.71939994782037    3.84886272678813
C         0.87041504009193    6.92695169918807    1.84023460611752
H         1.74449480372148    6.81477446245414    1.19809522367560
H         1.16285783327587    7.52108027947644    2.71560284189743
H         0.10445820939267    7.46644005886921    1.29103189453320
C         1.32114373512212    3.08360837204344    4.97786948518277
H         0.72512876371639    2.30706316378904    5.44805892033840
H         1.56134947523638    3.85545126281797    5.73488089008144
H         2.25848568812815    2.64507751137792    4.63184501961114

