73
CSD_code = RAMFIW | q = 0 | S = 0 | Stoichiometry = C28H38N4O2Zn | MND = 4
Zn        2.57856649690188    1.85418444785488    3.46872887889989
O         3.63527004282508    5.02427786654167    1.15711140783966
O        -0.16133566672390   -0.59535364893448    1.73676486454542
N         3.36532770030236    3.04059084593114    2.13334514291933
N         2.25531042079027    3.19856363210217    4.79116434038631
N         0.94909830327192    1.02745431957504    2.78285418531008
N         3.55778286401128    0.22992128612171    3.72031620413060
C         2.13198315138646    4.50191706465773    4.52375299222251
C         1.59501723628745    5.43682065608854    5.45675393499631
H         1.28432889228668    5.09171564322276    6.42871722083861
C         1.42846330856074    6.76214604904619    5.17186914452726
H         1.00172692318906    7.41710570621048    5.91907704780614
C         1.80213191185086    7.28082910109477    3.92958484625116
H         1.66829277604998    8.32807464154580    3.70826787738612
C         2.34591264415150    6.43058090763177    3.00726642327777
H         2.65089424359669    6.80649011228764    2.04301211719676
C         2.52955052404780    5.05599166989605    3.25930799897330
C         1.98303916619956    2.72197687805176    6.13923764080662
H         1.87444005276094    1.63541549481589    6.07965932281512
H         1.03888780508179    3.12106639012539    6.53286483201135
C         3.12627010458932    3.04656208495844    7.10854475806649
H         3.25631039009492    4.12865082864773    7.16963660644785
H         4.04888696111660    2.62772723425589    6.70313433752000
C         2.86631642603847    2.47638508169175    8.49654510025933
H         3.69152820878844    2.70920045497611    9.16550446896077
H         2.75618269094728    1.39491940027420    8.45179793498616
H         1.95468744906860    2.89459779131324    8.91886960408711
C         3.16289553026741    4.31823085850718    2.21181966540561
C         4.23237929822869    4.11869927258357    0.24642003492540
H         5.27445100482839    4.41357780889531    0.09401295164191
H         3.70019077534175    4.17986071169751   -0.70827309194483
C         4.09784189767184    2.72855588638124    0.91464698097038
C         5.45938817747013    2.13089750599078    1.27013512306681
H         5.31420814408203    1.18884052448105    1.79058915517917
H         6.01040463329000    2.80712896472643    1.92019503221408
H         6.03813807697600    1.95283423488553    0.36664965748734
C         3.30425225510607    1.74625030379697    0.05511971865897
H         3.15072439603664    0.82009638296702    0.60387235069993
H         3.84775997815755    1.52896737242860   -0.86165876268591
H         2.33319717918482    2.16426181186418   -0.20118862447843
C         3.29882213654523   -0.91212788256090    3.07681107921841
C         4.20957008966080   -2.00876531019702    3.04791406624752
H         5.14503667663156   -1.93067347843352    3.57623878208537
C         3.96658385931987   -3.16143063491363    2.35675090616233
H         4.70505208670444   -3.95137934442095    2.36379142882150
C         2.77795688074887   -3.33208515360812    1.64262374678573
H         2.59014718878699   -4.24376947091952    1.09747456615630
C         1.85942293462757   -2.31950470007865    1.65810404995792
H         0.92948340515196   -2.42846256239585    1.12196690860353
C         2.07342303798659   -1.11270546884441    2.35427168329210
C         4.74368293478531    0.31829760762466    4.55964454033528
H         4.91480436382869    1.37919629881238    4.76261310878715
H         5.63765211663573   -0.06229366912917    4.04818663936303
C         4.56175423407110   -0.41169925373518    5.89601880206870
H         4.37601974668932   -1.47124246462237    5.71049611500206
H         3.67803874510130   -0.00559836901619    6.39108621316858
C         5.77905639616832   -0.24853876148442    6.79646148622199
H         5.62656417584089   -0.76433848538654    7.74164963640041
H         5.96222960042657    0.80328657083569    7.00579665213987
H         6.66666802768642   -0.66092244956580    6.32062343679883
C         0.99021720412402   -0.18111807114119    2.31679759689293
C        -1.10278494105949    0.46011586777119    1.81236724037643
H        -1.99094050278643    0.09831901931181    2.33787475581425
H        -1.38338881303181    0.75279404412201    0.79545955707741
C        -0.37662150409552    1.59291410440390    2.57808394482667
C        -0.28514176823875    2.88000604626433    1.76073370889027
H         0.31427036302069    3.61244775482658    2.29608643305025
H        -1.27955022030763    3.28859777426653    1.59548882871772
H         0.18101403191001    2.68593610734037    0.79725214911385
C        -1.02926152565372    1.87760075520437    3.93107523348156
H        -0.45074448659146    2.63024765293527    4.45853081719476
H        -1.05699439274692    0.97289750541215    4.53455364573650
H        -2.04354445602211    2.24348484212548    3.78864281660512

