48
CSD_code = RAMFUH | q = 0 | S = 0 | Stoichiometry = C20H19N3NiO5 | MND = 6
Ni        1.50504971094439    7.11359707510992   17.31247625891509
O         0.59656409353877    5.82248088287102   18.33730896207002
O         0.04607988790985    3.74657882430447   18.82036349631361
O        -0.00092089854249    7.44228596291476   16.20975819939237
O        -1.16108344348963    7.25928237366841   14.34336299085817
O         0.48378464577959    8.71690175526205   18.78280624424686
N         1.32173327470613    5.11210827705376   15.75483206448320
N         2.57301296028847    8.31006844154858   16.32433591226807
N         3.08832644292701    6.79456875915337   18.30280118396503
C         0.35072022364858    4.61132782321925   18.02218239078265
C         0.42144062259409    4.25438165001629   16.50677486777635
H         0.67172898544538    3.19354174476065   16.39905052216425
H        -0.59486129749704    4.40483364397755   16.13468240600993
C        -0.26596900509519    6.90613194727960   15.08446402565541
C         0.68051540930591    5.74751142677755   14.62270537473514
H         0.08677186509138    5.02921636761635   14.04590693723211
H         1.40455093418763    6.19888916816004   13.94459454944975
C         2.68845527144289    4.87001607656958   15.82277472234246
C         3.20672397104854    3.99794397912263   16.79798680790983
H         2.54756608922121    3.50231612231798   17.49141327839713
C         4.56314659424919    3.77797969029650   16.91136077240971
H         4.92179690253047    3.10110342720097   17.67331529324427
C         5.46321524170690    4.40688670838589   16.06573419102580
H         6.52313161682491    4.22501478549252   16.15531296878183
C         4.97233534375286    5.26624302538957   15.09989234038828
H         5.65148627096218    5.76761544412140   14.42446764770250
C         3.61617182112150    5.50001327307180   14.97743674375358
H         3.29198187551326    6.18337646954546   14.20678735415806
C         2.18442110078182    9.15645190848698   15.37795441984858
H         1.11776778877426    9.28018329840198   15.24726431667938
C         3.08041686531411    9.84858760985976   14.58150976671477
H         2.71666349586133   10.52363590687772   13.82423365591116
C         4.44045834723265    9.65093039910236   14.77617948763510
H         5.16598775268350   10.16418391781487   14.16383991840276
C         4.85015665513049    8.79063707030452   15.77714525563923
H         5.89907704282558    8.62569861343920   15.96004609625734
C         3.89212507397547    8.13312410758432   16.54592945187662
C         4.18755026804774    7.25395466585303   17.67316603587163
C         5.46540801971338    6.92072760757147   18.11303155649548
H         6.33443737749339    7.27753723539550   17.58558482504159
C         5.60600497544984    6.12153872070164   19.23283324756981
H         6.58773499362498    5.84658416684979   19.58691425777564
C         4.46621556738606    5.68515555505835   19.88958373771162
H         4.53077779653684    5.07077314067795   20.77264577365740
C         3.22654041507468    6.04203095536302   19.38490721381102
H         2.31242932297997    5.70392486194077   19.85491258008318
H         0.12707167592739    8.03162756212576   19.36252745686822
H        -0.21939994492988    8.91209757138225   18.14970243971850

