76
CSD_code = RAMFAO | q = 0 | S = 0 | Stoichiometry = C28H41Cl2N3NiO | MND = 5
Ni       17.40896404232990   19.55737380803800   32.61211456052946
Cl       17.76252073780487   19.55755406416958   30.47819514573164
Cl       17.52879236239834   21.55679925218641   32.78517157734828
O        15.15065985402720   19.17672921929824   32.19301991447802
C        19.66013033294050   19.91386580081801   34.73292670868303
N        18.91137608417505   18.98148084317589   34.01821010254961
N        17.27351639658615   17.70722958412057   32.56711724096939
N        14.43240545124774   17.88103694977471   30.48006842965172
H        14.61880244557528   17.06968915564142   29.91286911854555
C        21.53451640007194   19.80243245648795   33.02724269976289
H        21.01187095848920   18.89673435544623   32.70780772069837
C        21.60868429795915   21.25257879285102   35.08548831920346
H        22.59636061265845   21.57239956697173   34.79320329192881
C        20.94974827044238   20.29411040228960   34.33040650701993
C        18.24818095764335   15.57403817393250   32.94744448173844
H        19.03582112417756   14.97600690169422   33.37636668274038
C        19.01646633775395   20.54126214879716   35.81345907130402
C        19.19154876231913   17.73037784864713   33.91517501529326
C        15.23171089054879   18.15544735160677   31.51551852632026
C        16.27001695754923   17.14081534525583   31.89543224295221
C        21.01961847529745   21.81325734129609   36.20297031841324
H        21.56098699078668   22.54267511211427   36.78710715190491
C        16.20923263463480   15.77066109147732   31.70115310162551
H        15.38294310811174   15.32018288268932   31.17419474754621
C        17.59248924612913   20.15751413988794   36.13614339437431
H        17.09647252062341   19.91058520760037   35.18041969564979
C        17.23098715024160   14.98240071641755   32.22127403725015
H        17.21927053845866   13.91342860012124   32.07275757650876
C        18.23762402255182   16.95802249722848   33.12361319215070
C        13.46581389542051   18.83713173641622   29.98189062570668
H        13.69648380617830   19.05899258829790   28.93746347202030
H        13.58893291604371   19.74596131978471   30.57427659888650
C        20.34044174647354   17.04775990915677   34.59032838445584
H        20.88148723556450   17.75458985631728   35.21508779428600
H        21.02575353369128   16.63209327488619   33.85284888664242
H        19.97325589852611   16.23142985550889   35.21170935350042
C        16.79975556146874   21.29316577841654   36.77659885721713
H        16.90304987996935   22.19846544395571   36.18416695960595
H        17.13236988311620   21.48962409545121   37.79361329259972
H        15.74578195875459   21.02631027430220   36.81395421395806
C        19.72561449020034   21.47212114049289   36.55289899640186
H        19.26397165087553   21.94828489745352   37.40254734111229
C        21.27290107269810   20.87028299277459   31.96015369249331
H        20.20221219897608   21.04073517101356   31.86194277736804
H        21.65835130160447   20.54347750973597   30.99729196209483
H        21.74685174683901   21.81034803081813   32.23180232095658
C        23.02432881734064   19.47345231795672   33.12856715588606
H        23.22038869221697   18.80755844902886   33.96757715925360
H        23.61831072090336   20.37408942054812   33.25718895876857
H        23.35489411891096   18.98466229927665   32.21465656481685
C        17.56662369334246   18.91206080919994   37.02765161134768
H        18.07525278109215   18.07657738790756   36.55001967182800
H        16.53998454627478   18.61664463783889   37.23339305629393
H        18.06307579950429   19.11910971049495   37.97431666617297
C        12.04110374443654   18.30072208024663   30.12196718074377
H        11.88155268985206   18.02071993635928   31.16557602650184
H        11.92754673459896   17.40141161982812   29.51084218554603
C        10.98535094666648   19.32816739320156   29.71541175939755
H        10.00196124549520   18.94037397272113   29.99196706342218
H        11.14684982568068   20.24959036017004   30.27760659934587
C        10.98535237830109   19.63801047915420   28.21981832697538
H        10.90825869978829   18.70414077735891   27.65693476696976
H        11.92301226195242   20.12069100068777   27.94043868965548
C         9.82577106108862   20.55400631048833   27.83433378884642
H         8.88082588885132   20.07254800119798   28.09845130046169
H         9.90114662336771   21.47828389003457   28.40857034876618
C         8.61337334131616   21.68459877831199   25.89243405430096
H         8.61652747080123   21.74067008506782   24.80115296254931
H         7.70076633005635   21.16416278221961   26.19272654378760
C         9.82785204935685   20.87114174505997   26.34040640312957
H         9.84297533855693   19.93082429119234   25.78285715605467
H        10.73940508076554   21.41783299096389   26.08871335195462
C         8.59785407088299   23.10046619581520   26.45650931408825
H         7.76256729125360   23.66182668125210   26.04380578612766
H         9.51898161976024   23.62038193393959   26.20244392411823
H         8.49555940084764   23.08931017518970   27.53831551986308

