105
CSD_code = RAMGER | q = 0 | S = 0 | Stoichiometry = C50H50N2P2Ru | MND = 6
Ru        2.06098652960381    2.06819295732398    6.73294472712153
H         1.07405006426011    1.75037997591879    5.56622693038019
H         2.86635353215910    2.38747497170511    8.03111119471488
P         3.49706344025544    0.51396819638436    6.04470316187207
P         3.19170610376394    3.58622797691751    5.56319807614848
N         0.44897030470230    3.40630659477658    7.47272296290694
H         0.82871599474145    4.32541353143860    7.70832319383444
H        -0.16877850192846    3.53320062218482    6.66988267608632
N         0.82455454355976    0.77506553712639    8.05131910520291
H         0.70095334383302   -0.14793849220692    7.63029594129124
H         1.38915011962853    0.64854294595036    8.89240122407977
C        -0.31264091933320    2.88036304760062    8.61807348927799
C        -0.49097801095258    1.33454469847398    8.40523645524317
C         0.49693369982605    3.19106208494275    9.88147609685221
H         0.62608009299038    4.26892648272580    9.97121976839036
H         1.48610346329279    2.74406531336944    9.81550887293769
H        -0.00702000440702    2.84065504826561   10.77680630150257
C        -1.65422620395968    3.62190758882659    8.70890646743273
H        -1.47162308298971    4.67461399467605    8.91978770198217
H        -2.27200480409979    3.22386814200956    9.50915318611788
H        -2.20999900889915    3.55963943735354    7.77658324719850
C        -1.01517075405387    0.62329955212117    9.66112531688338
H        -1.17836556124413   -0.43011733961808    9.43824754825540
H        -1.96153560957603    1.04543115613513    9.98778943736791
H        -0.30497709201714    0.68489841573952   10.48196929431024
C        -1.44168300879396    1.02612661982839    7.24367551963146
H        -1.51151026944616   -0.05281947893089    7.11130658365254
H        -1.05651408262137    1.44854697110041    6.31852172296296
H        -2.44175349400426    1.40352917731721    7.43286641396549
C         4.86929909826095    1.63678759202194    3.90986980954313
C         3.94941098950192    0.66514086174264    4.27900675250325
C         3.29006164090922   -0.08425101197817    3.28589300500377
H         2.59227996849584   -0.85150689143807    3.58595357122421
C         3.53388773654950    0.13036454481877    1.96153890009609
H         3.02310892020108   -0.45388134616711    1.20826753978800
C         4.46147024826150    1.10808251082037    1.54771815527439
C         4.72739097460303    1.34493801513949    0.18445575799863
H         4.19000451733960    0.76558360215916   -0.55354941460995
C         5.64364266233413    2.28303194196161   -0.19916765590843
H         5.84469238551008    2.45743111526259   -1.24639908534461
C         6.32799205098477    3.02821606011371    0.77094017945130
H         7.04920902916050    3.76995080281615    0.45914599001488
C         6.08281772720098    2.82978119451414    2.10064250791057
H         6.60820308034360    3.41759902337292    2.83811020790835
C         5.15058660864770    1.86099484337334    2.53297931101065
C         5.62155247684859    2.40868764949067    4.92446494909011
C         5.00782668153681    3.40182656882140    5.67516773368408
C         5.76672343351244    4.15032782423733    6.59511338779864
H         5.28271001812938    4.93426769870646    7.15795464058349
C         7.09843411590530    3.91396156730270    6.76872848115589
H         7.67114024346048    4.49767825255910    7.47646571202338
C         7.75706783790707    2.91444810272336    6.02397415569972
C         9.13238395588778    2.65574210615322    6.18814955215204
H         9.68203677799412    3.23482693753000    6.91727869508728
C         9.75998249221291    1.69753318248872    5.44345918479003
H        10.81568922400743    1.50665282265913    5.57223043234750
C         9.03083396696702    0.95308399772805    4.50589750232883
H         9.53438809747365    0.19568970896824    3.92251714037116
C         7.69298486279855    1.17200843178299    4.33325951572758
H         7.13982245074277    0.58455750950532    3.61607161750553
C         7.01468221977269    2.16203361205740    5.07781657498572
C         5.17686095845506    0.19048209631485    6.71416707156575
C         5.62478005304788    0.85797917612998    7.84411392556563
H         4.96714999303501    1.57708684858809    8.31139754528340
C         6.89408310633993    0.61849188917846    8.33933282149976
H         7.24402407188092    1.15222100597417    9.21161453518948
C         7.71715827439367   -0.30335447198279    7.71613440525859
H         8.70979570334286   -0.49076829358849    8.09959048505589
C         7.26958598979448   -0.98592030546925    6.59576187112599
H         7.91157811835402   -1.70829226636624    6.11175546078805
C         6.00773107595385   -0.73780753778226    6.09201470654396
H         5.65511354297545   -1.26030370924492    5.21145163974012
C         2.77554406583913   -1.16821909370421    6.20907335517259
C         1.49067611911039   -1.36532437601648    5.69561551199271
H         1.01808237513741   -0.55307368272151    5.15959807357415
C         0.82317745575523   -2.56085712694496    5.88585848997452
H        -0.16410160963953   -2.70148960822985    5.46705855946412
C         1.41629095969707   -3.57689615562250    6.61955738586416
H         0.89719034132914   -4.51211999894132    6.77206198147164
C         2.67218455173183   -3.37904658527670    7.16687369336961
H         3.13272704085108   -4.16031762934318    7.75486548989542
C         3.34677316231965   -2.18535492205614    6.96935632250904
H         4.32328889190901   -2.04891252639401    7.41070291613920
C         2.84875595559065    5.28196068814909    6.18313470642071
C         2.94947136940726    5.49061064294342    7.56142616835012
H         3.29764516730136    4.67682026174903    8.18332444113641
C         2.59012534693643    6.69974639398064    8.12696038104879
H         2.69036277788167    6.84870923819129    9.19356093627290
C         2.09476249384064    7.71882482422046    7.32792103020265
H         1.81125382661876    8.66475780442800    7.76625011236981
C         1.95301339898758    7.51052245233962    5.96682265008722
H         1.55092877376356    8.29452445914341    5.34089359977254
C         2.32127632340618    6.30289105288886    5.39677815536187
H         2.19646271740206    6.15845772013575    4.33349095890233
C         3.07547519992600    3.89457372947440    3.75582678183107
C         3.93985013727174    4.80049342592645    3.14653895448220
H         4.68054871528347    5.31425697798873    3.74666619944616
C         3.85066700243944    5.03810025378894    1.78886226894258
H         4.52175493627747    5.74327764572948    1.31917712234597
C         2.90743249858649    4.36703590175466    1.02636637861114
H         2.84910108151273    4.54604340591267   -0.03762177990973
C         2.04482837384247    3.46710420219801    1.62777386195628
H         1.31092193284803    2.94221260895061    1.03268191929916
C         2.12384319449249    3.23833878488668    2.98979033793935
H         1.46416721696425    2.53617023802507    3.47938114324222

