95
CSD_code = RAMGAO | q = 0 | S = 0 | Stoichiometry = C38H50Cl2N2O2Zn | MND = 4
Zn       -0.00006082250242   11.37499819557126    2.04394771981755
Cl        1.53183944666283    9.97633515188445    1.26182976725506
O         1.11943887697050   12.23516739497519    3.47338915281059
N         2.00471041009058   10.20433165222390    4.92825097958961
H         1.24363610705386   10.61070328927050    4.37291909978506
C         2.33915496339057   12.60923196219116    3.34456869210604
C         3.40225485105461   11.94392916672884    4.05105716148133
C         4.72267676450407   12.44081782235548    3.94343756853043
H         5.50617261821149   11.92812837564140    4.48371939539242
C         5.01145463745539   13.52365595757455    3.16615766990659
H         6.02324997748412   13.88922661092282    3.08466033343228
C         3.98165603782017   14.15792344773688    2.45052134482939
H         4.22047907275966   15.00367775886828    1.82199623366203
C         2.69144790209697   13.71958756339879    2.53622691082737
H         1.89842990131169   14.19734364027966    1.97906974764378
C         3.16174669037536   10.78797115781911    4.80957306700000
H         3.99940452228701   10.34436843323696    5.34161931308519
C         1.71811932141021    7.72690522599814    4.83352672341695
C         0.47130199013044    7.62003718630950    3.95492618012255
H         0.42635637888676    8.47361600808787    3.27982764887986
H        -0.43177338217772    7.61383749353217    4.56802133445374
C         0.52345293069796    6.33072743861952    3.13487892438493
H        -0.37644307020639    6.26875830976510    2.51328547193930
C         0.57254508869542    5.12728511052392    4.07460554456779
H         0.59278638263676    4.20165773851222    3.49544230405320
H        -0.31999063137950    5.10784471741126    4.70538729442318
C         1.82402332521850    5.21997673241191    4.94474258862714
H         1.86059864448944    4.36368273001286    5.62891398228468
C         3.06519836079172    5.21860470888954    4.05617549046974
H         3.10599152846216    4.29447671708304    3.47600652648973
H         3.96641997832436    5.26601545646778    4.67300426133040
C         3.00700542715841    6.42160820376347    3.11790842928196
H         3.89944309106836    6.43584470008789    2.48332828493511
C         2.95724988403435    7.71591236096151    3.92898265177851
H         3.86411960894150    7.80665529913905    4.53468550903343
H         2.91697200988287    8.55288533551970    3.23049094003289
C         1.76033105474280    6.34155535649014    2.24112137280877
H         1.72672681993213    7.20672387586210    1.57758989801737
H         1.78921728143428    5.43799231169114    1.62834866812985
C         1.78277491601216    6.50946075313756    5.76547786388040
H         0.91021292968730    6.48618601289101    6.42135732709073
H         2.67460822344063    6.56867609169116    6.39579921898571
C         1.72337372510302    9.02308566592158    5.70310058147151
H         2.53586426447040    8.91018816228037    6.43398791667997
C         0.41110763289659    9.29073911048476    6.43933454594950
H         0.54611621297242   10.11205729233617    7.14072610543707
H        -0.36217636919740    9.56725003802356    5.72737021505299
H         0.08664930151797    8.41718461014283    6.99509099264234
Cl       -1.53202952733028   12.77362829220494    1.26191206750634
O        -1.11943737614124   10.51481355495951    3.47348241377506
N        -2.00472421724714   12.54571873285758    4.92828090973370
H        -1.24362576818714   12.13931988246545    4.37299915663613
C        -2.33915227682914   10.14075139235299    3.34466302872554
C        -3.40226693066355   10.80610631369122    4.05109211722854
C        -4.72269699580462   10.30923997824613    3.94343952578621
H        -5.50619287056975   10.82192961163648    4.48371719687187
C        -5.01148851095485    9.22645348393997    3.16609767422480
H        -6.02327426359493    8.86087530080290    3.08460800214152
C        -3.98168946019105    8.59218955346751    2.45045198424205
H        -4.22050499154923    7.74641880020305    1.82194159090422
C        -2.69146494288644    9.03047540077967    2.53621950185541
H        -1.89844969412355    8.55273612518661    1.97904648203542
C        -3.16177324463134   11.96210830845646    4.80955095638778
H        -3.99940987487052   12.40566610000074    5.34164884709103
C        -1.71810517269210   15.02313355474966    4.83353414111147
C        -0.47122225319823   15.12988501560608    3.95501304907818
H        -0.42623991230707   14.27628870136528    3.27992818385713
H         0.43183304063595   15.13612752586787    4.56815093720753
C        -0.52350831897192   16.41921867603897    3.13500331044843
H         0.37639165823155   16.48119086151401    2.51344908876472
C        -0.57250506695536   17.62276369162282    4.07461786557796
H        -0.59277725337451   18.54836701632329    3.49540049461887
H         0.32001849167300   17.64225734444945    4.70542970072598
C        -1.82404000867436   17.52992853831321    4.94463723201079
H        -1.86065190697143   18.38623916753624    5.62875786307543
C        -3.06523834760596   17.53138933043104    4.05609901067068
H        -3.10602330667776   18.45551111831433    3.47590446508442
H        -3.96648177411574   17.48396326888446    4.67290804523687
C        -3.00684272776231   16.32831261880451    3.11794747627753
H        -3.89923032101935   16.31406249907185    2.48333138863007
C        -2.95724171671811   15.03398269305707    3.92898842922064
H        -3.86413696793690   14.94327739509601    4.53467223247864
H        -2.91693400632079   14.19698061896387    3.23052141965045
C        -1.76023168120401   16.40834569616094    2.24105596108235
H        -1.72660262659795   15.54314269561260    1.57755783817222
H        -1.78910305598532   17.31190036827585    1.62825727379215
C        -1.78278329390846   16.24054114007063    5.76553702152833
H        -0.91021267814044   16.26385404501305    6.42141810098877
H        -2.67462931901151   16.18134522003015    6.39585308042839
C        -1.72338692134298   13.72697563243751    5.70312382820323
H        -2.53589926416202   13.83990541483777    6.43397872552313
C        -0.41115899686112   13.45933727023872    6.43943609613927
H        -0.54620882602448   12.63805855763922    7.14086458186374
H         0.36213785711227   13.18275231361309    5.72751712428022
H        -0.08667919596207   14.33290284619015    6.99516562573000

