38
CSD_code = RAMJOE | q = 1 | S = 0 | Stoichiometry = C16H14ClN4O2Ru(1+) | MND = 6
Ru        0.82903367755032    1.15895987971505    9.96183471104218
Cl       -0.11593120047291   -0.89082145048156   10.57517795967229
O         1.63575138253634    1.48384648489069   12.66947217514423
O         0.24579673153143    0.93271282156281    8.14379828181011
N         1.34673117268046    1.38704363230251   11.55425506037390
N         2.65064029649428    0.46063675287712    9.29891055417376
N         1.51291732675212    2.80653594851625    9.17468497606949
N        -0.84416934610689    2.33808192965465   10.19687863410853
C        -0.62746797070597    0.02398777844090    7.57086385659250
C         3.34562705806525    1.42614976419560    8.65119750955487
C         4.58464392028341    1.13943467660606    8.08669030241350
C         5.09572434970573   -0.14773092461236    8.17676314104878
C         4.35737042726358   -1.12156483901357    8.82898942358722
C         3.13329751920091   -0.76879682839061    9.38217871021434
C         2.69044248901673    2.74466941463749    8.55360823033473
C         3.14196900041275    3.86035887482679    7.84899091369226
C         2.32631791745997    4.98291195654291    7.79615571992749
C         1.07140466918337    4.97782387808336    8.39128142042540
C         0.66998131841321    3.83515430126940    9.08213403772446
C        -0.64955614111301    3.58011882702554    9.69215409492607
C        -1.67557931413905    4.51945124565320    9.72723269275016
C        -2.90529039790598    4.16926025808246   10.26688085204753
C        -3.08491247024761    2.88658215090786   10.75853572127667
C        -2.01796029730757    1.99912895133876   10.70642222644999
H        -1.67279510217555    0.30950207173375    7.76705516792298
H        -0.46537170713439    0.02178567725082    6.48502908703667
H        -0.47254976877425   -0.99210440322605    7.95615452864821
H         5.14310209760558    1.90899938953106    7.57934003306412
H         6.05325549577239   -0.38220394528202    7.73828425521710
H         4.71405810232443   -2.13516337155334    8.91232242315300
H         2.51406344752788   -1.49024379047368    9.90559116316789
H         4.09076262306035    3.85543503753561    7.33902998569575
H         2.65772786467609    5.85799501439487    7.25885980042091
H         0.42457748550112    5.83425032185047    8.29943634699332
H        -1.51883365560493    5.51143039592202    9.33631276019049
H        -3.70854974361901    4.88896028126467   10.29652411522747
H        -4.02717634063126    2.57218168159257   11.17662344456447
H        -2.10055291707953    0.98284015482934   11.07844568333778

