34
CSD_code = RAMJUK | q = 1 | S = 0 | Stoichiometry = C15H11Br2N4ORu(1+) | MND = 6
Ru        0.72530742741641    3.80128012183652    5.66361444725580
Br        1.74235397472764    2.48823515263084    7.56771744507891
Br       -0.24308311198973    4.68443497970734    3.50415555847242
O         0.45286075587276    6.21578767130454    7.10061228374463
N         0.56241550630260    5.23802956662573    6.51998609737118
N        -1.09325960281050    2.91263475530190    6.06947831930339
N         0.91553534297136    2.12682679915488    4.66642042271070
N         2.61505445124832    4.04799333432017    4.87064309196018
C        -1.23911388424960    1.70135904586116    5.48789017817789
C        -2.40888190594336    0.96597371815487    5.65286062626924
C        -3.43658433639132    1.48509373953676    6.42308971292460
C        -3.26842097060619    2.72860778824363    7.01169699581834
C        -2.07808990508439    3.40903992742932    6.80865395901752
C        -0.09134276920177    1.24649891661564    4.68851420975562
C         0.01900443688299    0.04345634913806    3.99521220670450
C         1.18637633506716   -0.21096043828641    3.29011427116624
C         2.21596083080172    0.71882576176661    3.28035217837011
C         2.04944365698301    1.90416982406287    3.99269340958311
C         3.01575480199332    3.00705309728853    4.10742298738095
C         4.26142386159575    3.01387140395345    3.48717689077826
C         5.10037476187861    4.10306386879464    3.65651860083513
C         4.67295891233134    5.15999116483896    4.44480566069799
C         3.42040164297937    5.09082035110090    5.03412977050233
H        -2.51237619950984    0.00196871931670    5.18349281291785
H        -4.35025170881188    0.92855585413545    6.55974264226490
H        -4.04051092477128    3.17200213840578    7.61879681085599
H        -1.92002629554065    4.38361307739433    7.25766449488681
H        -0.78027736584239   -0.67791896070222    4.00299653546356
H         1.29403725584776   -1.13638652414459    2.74651593165865
H         3.12197103951611    0.52195461161997    2.73292911102657
H         4.56782150976870    2.17851159889629    2.88003738478539
H         6.06848167421114    4.12471934298078    3.18163554995834
H         5.29191668686912    6.02741522663027    4.60527989072144
H         3.06086411548861    5.90397801608294    5.65534951158058

