62
CSD_code = RAMKEY | q = 0 | S = 0 | Stoichiometry = C25H31N3O2Pd | MND = 4
Pd        5.75752223845164    2.70469040212830   12.68379403110468
N         4.96200902494688    1.54833029437337   14.09112895346134
N         4.82502514383292    1.39602426817251   11.24868334368914
N         6.48439463113895    3.74888879287807   11.14104448473533
O         3.94865432648618   -0.25834333817903   14.90828395546190
O         6.68679961853918    4.23965442416619    8.97654924955530
C         3.25136892673603    3.11662878690712   14.87045228212948
H         3.83172477228243    3.95409822834432   14.45303364551843
C         2.32082743386744    2.62647794441107   13.75982636221664
H         2.89187244021340    2.46872981742910   12.83896061829895
H         1.56008509295601    3.37705822976117   13.55863393641295
H         1.82074536182879    1.69809072266378   14.03064195107526
C         2.47480134253653    3.61307436943471   16.08654275410461
H         1.82309193601742    2.83850461334869   16.48453277473492
H         1.85626931757027    4.46302024077882   15.80943797986459
H         3.15503705532462    3.92721857018404   16.87517055883345
C         4.28398402367922    2.03721175209323   15.27837493965095
H         5.00898890443532    2.49023029640228   15.96358011374810
C         3.69023225519062    0.74585673411730   15.88003106711570
H         4.17678272871547    0.46034611295883   16.81767913606546
H         2.61108875614162    0.79587827852243   16.04112653932699
C         4.65250029582840    0.31303546988445   13.90555808575805
C         4.90537644500349   -0.50891116996539   12.74520388850540
C         5.02106137000091   -1.89146657584265   12.90949816846235
H         5.01574249507269   -2.28804886686553   13.91385568326510
C         5.14848630884651   -2.73020670889119   11.82709689021059
H         5.25466194801268   -3.79454841272599   11.96885522580786
C         5.13551104165857   -2.18899233620502   10.54228760243304
H         5.23719137113856   -2.84020707432812    9.68564172093524
C         4.99863860832005   -0.83759759743783   10.35267485380984
H         5.00263419164476   -0.42428788993040    9.35358130326810
C         4.89123239952043    0.05805561918350   11.44012729772446
C         4.19402673498687    1.95135628089233   10.18679248853597
C         3.01100648654172    1.39242833701719    9.65512771447523
H         2.62745580058260    0.48933223916911   10.10959523546229
C         2.33660890559899    1.98652489069478    8.61871338124561
H         1.42285702839082    1.54102568018826    8.25158679454608
C         2.81661674947604    3.15859188224303    8.03696207445745
H         2.28323253921388    3.61927207207019    7.21998479123130
C         3.97903544565064    3.71861883478882    8.51454714919743
H         4.37568540031094    4.62024230248405    8.07198226459999
C         4.66932971733816    3.14886306186834    9.58635305532080
C         5.94299989883728    3.71406086013851    9.97455884409827
C         7.95516029967978    4.57908861758496    9.51697425290371
H         8.14290083347165    5.64035153323700    9.33480720345872
H         8.71426654563783    3.98916242653084    8.99614895748488
C         7.84817185816664    4.24102704186299   11.02043351883098
H         7.96358975465780    5.15063888944855   11.62276112836771
C         8.85190200774672    3.18471165765274   11.54033906395744
H         8.71392995212949    3.13991918456423   12.62797579124122
C         8.54866894269356    1.78916356631078   10.98908890525021
H         7.60132785436006    1.41808291486229   11.40964545135277
H         9.33834515348495    1.09922907208174   11.27739205662973
H         8.47814477741155    1.79290240928004    9.90228507454567
C        10.29005358152660    3.60904608208815   11.25329210523768
H        10.51582768013796    3.56727417148844   10.19031608839333
H        10.97920612861318    2.94436374863936   11.76817129357472
H        10.46844342514956    4.62363727821856   11.60260171375437
C         6.67704805879156    3.90343530982416   14.11562326009100
H         5.96128437112853    4.36401326069181   14.80531855009021
H         7.27501255864659    4.71982865362165   13.70067743869100
H         7.34531970370417    3.26601374267103   14.71455495566822

