31
CSD_code = RAMLEZ | q = 0 | S = 0 | Stoichiometry = C8H13N2O7Rh | MND = 6
Rh        4.80086397894056    6.44499755885527    6.94546356484915
O         4.96328047080042    5.74595478090296   10.87918473083836
O         5.52215019399657    5.87594565713787    8.74073209640307
O         7.08405794857775    3.68433277264695    5.29746473452967
O         6.33856742211825    5.66573840872211    5.94689901992094
O         2.26288493871485    6.34285902168326    3.91799922860617
O         3.89044040647806    7.02741126532845    5.25792645549938
O         5.84997510206103    8.34454201480342    7.13338407886163
H         5.88586307754654    8.64738685668317    6.21239840929234
H         6.74761395011396    8.06146248645218    7.36771375526503
N         3.11127064135793    6.92636840017049    8.04995743943363
H         2.64556505334783    7.78831968773871    7.76297260484636
N         3.97456654735474    4.69274639467393    6.62406855531977
C         4.78218040597118    6.13954358541836    9.75146773480097
C         3.55730767841632    7.06656374193034    9.44608549893571
H         2.75380963394213    6.84936263595806   10.15701877489946
H         3.90340716316503    8.09028778101803    9.61089145622249
C         2.17089460388732    5.80347355813920    7.83489138836054
H         1.59830530507413    6.00541279726005    6.92450039376514
H         1.47248168017576    5.71841346621804    8.67607566117467
C         2.95251351153387    4.49534140633784    7.66967862196064
H         3.45665415947009    4.24531253360921    8.60771316681343
H         2.27821170754655    3.67267357955631    7.40754679674112
C         5.10098064919907    3.74491841661986    6.68155970100201
H         4.83480068028376    2.76719496809375    6.27134114446224
H         5.44105410869400    3.62953513243063    7.71464420059251
C         6.29930547508117    4.38182623450365    5.88814499103552
C         3.38294823901790    4.69296721862493    5.26527431066144
H         4.09514047443887    4.25994262528560    4.55785704055616
H         2.46226100659094    4.10601416505197    5.22956841285612
C         3.12134378610324    6.14335084814591    4.74327603149484

