74
CSD_code = RAMMIB | q = 0 | S = 0 | Stoichiometry = C28H27CuF6N4O6S2 | MND = 5
Cu        5.13249883663255    0.75163839620832   14.87545750115354
O         7.49828285921199    4.25222428869754    9.67639145789222
N         6.37328449314174    4.78407482120823    9.84907710299736
C         5.84608650799183    5.81029747942539    8.92515855464096
C         6.65173295673739    7.08333257904164    9.21104366449657
H         7.70634600826663    6.86644968793375    9.05349857143046
H         6.52174864525464    7.40754436105405   10.24131651155087
H         6.35715414565320    7.88501228731712    8.54073383755038
C         6.08465132497000    5.37223977446493    7.48613783351985
H         5.61628180090243    4.41669765814787    7.27278407380470
H         7.15483868211390    5.26048187495409    7.32947557018196
H         5.70281950557125    6.12126359467398    6.79852066613382
C         4.36992061487759    5.89697308826466    9.37327802874148
C         3.43962502443196    4.94479787702762    8.61205901541427
H         2.47453985616756    4.92735603912618    9.11428289164475
H         3.83420404766979    3.93116263638099    8.60381190612999
H         3.29285782594381    5.28359641286299    7.59087836676169
C         3.75912372549325    7.29101211586700    9.39896523017497
H         4.33016911389351    7.97063289614226   10.02357272484791
H         2.75590147495345    7.22475657658856    9.81269089997837
H         3.70033244171724    7.69196070518142    8.39133661233045
N         4.44783144705868    5.35843678833469   10.74947936082920
O         3.53921380958899    5.56146795074754   11.59059309354874
C         5.55368543845307    4.61783360614856   10.89901410757435
C         5.87408698745664    3.74490184609753   11.99916082544052
C         5.01890600518876    2.99856065091800   12.84599398305768
C         3.54725706589225    2.88130022565318   12.86391182390352
H         3.23669857677255    2.42397446432140   13.80114555527704
H         3.22305707646401    2.23313704156277   12.04979724173276
H         3.08066637392730    3.85703322851263   12.73601599928494
N         5.77341552359729    2.29344999473202   13.67531486525164
N         7.05565881462467    2.52897284568569   13.39694763281369
C         8.09690380716462    1.89648826942904   14.15041896857432
H         7.80315323248124    0.86544881536392   14.35687148586524
H         8.23378816777844    2.40227631175607   15.10854330462904
H         9.02400097199060    1.91819267441463   13.58143705379138
C         7.16458430253831    3.39489873081365   12.39088257821739
H         8.10493494264902    3.71611688782593   11.99117165530651
C         1.89507059873293   -0.15912691766392   17.53744565047952
F         0.91117809634427   -0.23049321589451   16.64579096929767
F         1.42430001240298    0.53210331047137   18.59115922861127
F         2.10490438929139   -1.41517641198965   17.98848495852487
C         3.19307193951820    0.44756744450793   16.96852287344233
O         3.19876385599208    0.68678603605767   15.73924474273525
C         4.20063531790088    0.59987328329112   17.90375612553897
H         4.00681005303833    0.28661577322642   18.91489008103526
C         5.48343148105458    1.08897614449270   17.57936760200425
O         5.84514902552370    1.54953261102581   16.45891274168666
C         6.50413417135194    1.07918065101996   18.61290385147241
C         6.48993213227303    0.69765067821460   19.93054343933577
H         5.61776754807267    0.33395208760366   20.44114381315124
C         7.74505461154789    0.83106984074784   20.54725236924974
H         7.93457108313756    0.58037633303093   21.57561891436083
C         8.69665333039246    1.31123926758275   19.69787045605566
H         9.72922376572420    1.50606038270003   19.91033169633490
S         8.08240354996096    1.60941403027102   18.12817731438954
C         2.88629646700224   -1.52905204563105   12.33925082902786
F         2.68487870407596   -0.47235825535345   11.54794324998543
F         3.32166828463246   -2.52644773933698   11.54362518428772
F         1.68462085574870   -1.91547320513868   12.78906486218951
C         3.89007987350671   -1.23385545272565   13.46879192234299
O         4.58778256084847   -0.19852233177190   13.29425005331938
C         3.90837056233395   -2.14984426299853   14.49610464840726
H         3.21252287141198   -2.96944253930440   14.47863449476613
C         4.77707624194734   -1.99707684810484   15.60578525102140
O         5.63443114042158   -1.07645926783436   15.71400308185348
C         4.68314594182514   -2.92875280325883   16.71121768899679
C         3.92194993420883   -4.05399074636563   16.90869640562983
H         3.24129428467442   -4.45190634439948   16.17930089487100
C         4.12509951450336   -4.62901733804226   18.17253363768631
H         3.61573972878372   -5.51130414609858   18.51611758370940
C         5.03488224527489   -3.94077366153674   18.91951186563806
H         5.36889208145617   -4.16234017432608   19.91392321621762
S         5.66597130995803   -2.57797964975464   18.09905774536001

