83
CSD_code = RAMSIJ | q = 0 | S = 0 | Stoichiometry = C31H44BN6Nb | MND = 7
C         2.84677305261458    0.07355179086716    6.76581861768659
H         3.50963130494217   -0.80005188475458    6.84209280486467
C         1.55314662581360   -0.15915743783939    7.51476011896441
H         0.65630498945962    0.34564726108357    7.17537090767680
H         1.36182243948341   -1.13506083418798    7.94655732066656
C         2.62386813685895    0.68341923890524    8.12825322366743
H         3.16574339919528    0.27845243093759    8.97507901442328
H         2.43974601949288    1.74763459960964    8.20426068167599
C         1.88986103378356    2.77047176368870    5.68998823589413
C         3.10025868520931    3.19954044888464    5.42183523289390
C         0.67984155892583    3.40660524383396    6.29976653192641
H         0.88630539564518    3.67532237449522    7.33819138456586
H        -0.18740394463598    2.74713288339835    6.28223462121164
H         0.43485603340999    4.32433388846917    5.76031867179584
C         3.82592634174744    4.49177882560670    5.60957287638773
H         3.95753946892213    4.68667985128191    6.67638626524340
H         3.24622505591930    5.31724719627781    5.19057365214718
H         4.80837163500139    4.47320399430462    5.13800573689941
C         1.03255460808476    0.71415043303049    3.59326828197834
H         1.16040314951809   -0.28969298270611    3.17346833645880
H         0.18287171336947    0.68662908328633    4.28781375614975
C         0.72537919920346    1.63207022396207    2.48548927693537
C         1.23405943532874    1.39649458563064    1.20556963618703
H         1.86478410499076    0.52978039547669    1.03954271938918
C         0.94150710497851    2.23265136800072    0.14115855883213
C         0.12062407216862    3.33247091367656    0.35325594142921
H        -0.11954423445686    3.98804057578740   -0.47305172337362
C        -0.40583981454577    3.59534163189723    1.61276548260818
C        -0.10250570751840    2.74444096542067    2.66110913682604
H        -0.52025928623992    2.93631157277767    3.64052392028564
C         1.47606444134698    1.93589478961630   -1.22953911155795
H         0.77100354730461    1.30978318316948   -1.77843883798303
H         2.42337442494197    1.40460475921119   -1.16727049961398
H         1.62128204864118    2.85283841845503   -1.79728600119712
C        -1.27711522576119    4.79858428449977    1.82831803056673
H        -0.66168480210756    5.69509183473856    1.91633050340870
H        -1.86059582229089    4.69714882531431    2.74038950652193
H        -1.95651220908369    4.94135527241623    0.98996328915768
C         1.69343516318489   -2.39539057873174    4.85578220019377
H         1.30134304514915   -1.48445434686590    5.29946389355218
H         1.84259730146671   -3.13789400198630    5.63968919580186
H         0.96009868259328   -2.79799890895102    4.15572272817455
C         2.98281718868300   -2.15206488444930    4.14942245137048
C         3.77487429740222   -3.13719362549591    3.55400821945190
H         3.58401255632684   -4.19112775159279    3.52493333844111
C         4.85479570295298   -2.46619196297498    3.01346083321767
C         6.00831415592449   -3.04894156967275    2.27806218941834
H         6.07746519065609   -2.64074244054460    1.27133171472185
H         5.88310758047982   -4.12679829037766    2.21201151266321
H         6.94212306361079   -2.83470858953093    2.79506384212670
C         5.74515545782199    2.02437368181482    7.42109493249085
H         4.69426125331694    2.29140630434540    7.33134073941695
H         6.32712994168102    2.89434237429541    7.71984787149918
H         5.84678963407989    1.26626312019365    8.19817275636256
C         6.24792201391109    1.49661287651015    6.12461268999873
C         7.57997564100319    1.38679594602732    5.71213701110040
H         8.45531985066492    1.68214741832209    6.25492242721545
C         7.52854147825903    0.81954141848150    4.45282090004595
C         8.66177034359879    0.49666101187007    3.54563822656856
H         8.69480138756604   -0.56930749071994    3.32651090116835
H         9.59607778030911    0.78588520875358    4.01976140137868
H         8.56405175537636    1.03321136139388    2.60333879380156
C         2.99640655940238    4.13532320684233    2.25331163088142
H         2.35868229201118    3.93012636470316    3.11117751133026
H         2.37759090336208    4.42635295687040    1.40759440810653
H         3.66249653480637    4.96499276154087    2.49372268226274
C         3.79996536692748    2.93512398372244    1.89966202791670
C         4.42239985569360    2.67857740852530    0.67343093866338
H         4.37421762278677    3.27614567937588   -0.21415893273602
C         5.10339841944452    1.48929318686056    0.84658308888508
C         5.91449307997597    0.73983568177392   -0.14963919827002
H         6.96407181035248    0.71455448174742    0.14002412785880
H         5.83217979889618    1.22401348609990   -1.11946082376821
H         5.56377787484604   -0.28731063052951   -0.23584193830346
N         3.55629356185816   -0.96120001096568    3.97448672125696
N         4.69324727550470   -1.15577001213991    3.27990291290553
N         6.23068032118447    0.60780166572882    4.15643656232084
N         5.45478708075090    1.02268229890360    5.17049432030978
N         4.88805817597383    1.07863169675083    2.11329174978969
N         4.08971258838710    1.95472378929591    2.74949340732791
Nb        2.97846435998406    1.16771252574438    4.80520166076365
B         5.64454539145892   -0.01749780832898    2.88053246485672
H         6.51228268061991   -0.44648076106297    2.20685780557276

