48
CSD_code = RAMTUW | q = 0 | S = 0 | Stoichiometry = C23H19Cl2O2PTi | MND = 9
Ti        0.77946487748487    9.18512617854126    1.13099630344379
Cl        2.16737445550683    8.90262326748261   -0.62373318289157
Cl       -0.26710776013499    7.36118854842504    0.40082756914434
P         1.22314276747007    7.47908586964752    3.57882413202889
O         0.12258135692675    8.34207705855315    3.02803036243196
O         2.23993332791949    9.48410752326090    2.05485894161647
C        -0.23463408122787   10.74360005833516   -0.28051801085063
H        -0.13459012852453   10.73693681612422   -1.35961160492662
C         0.61510205305957   11.43381284527126    0.62489915391800
H         1.46953196550994   12.04044837026934    0.34954275190499
C         0.06818079209295   11.29676753814875    1.91797814547979
H         0.43453206558560   11.77520667470365    2.81794320374947
C        -1.10752398659161   10.52305369953688    1.81290015550116
H        -1.79289715351733   10.30224728462359    2.61991207329683
C        -1.29944018049523   10.19390932779090    0.45779124688407
H        -2.15590036579463    9.67684495569718    0.04517016355285
C         0.62387044930904    6.50271817824974    4.97417796317699
C        -0.64323721583818    6.75612467724283    5.47772520502885
H        -1.24887055137726    7.51455284226617    5.00223537298567
C        -1.10805509245082    6.03219205026667    6.56193875127911
H        -2.09502980304052    6.22187968567883    6.95654207572719
C        -0.30444090201829    5.06258635294491    7.13964309430171
H        -0.66640696255772    4.49812195720256    7.98601624568903
C         0.96201233284197    4.80892607260640    6.63385343449292
H         1.58171609251382    4.04869472572902    7.08568094948339
C         1.42953055716984    5.52748202575343    5.54896735437914
H         2.40985833179068    5.33445044942673    5.13531415943611
C         1.87132278904464    6.30281302655096    2.34605443349784
C         1.12283395822134    5.15079722678087    2.12195920940724
H         0.24296882058597    4.96558830935110    2.72479529934574
C         1.48847757704671    4.27585111431279    1.11693242307912
H         0.89918516861603    3.38997770131593    0.93386449036410
C         2.59549321043732    4.55243740047820    0.32998527206756
H         2.86604931461247    3.88224025281048   -0.47199356788738
C         3.35176214487900    5.68886272553416    0.56306877294246
H         4.21150867724523    5.90553800745451   -0.05243889449868
C         2.99872670794505    6.56614328493433    1.57570737582360
H         3.60509658666266    7.44578601041483    1.75933940012519
C         2.56235842632780    8.54616732072243    4.16684608349699
C         2.85985400561346    9.53524557908379    3.20812074208630
C         3.81162338361781   10.51419592810464    3.52125554570049
H         4.04415409678312   11.26904277556960    2.78408916401898
C         4.43259542025965   10.48787846914179    4.75399342923907
H         5.16867523979397   11.24176029874689    4.99098327862466
C         4.12622680353057    9.51175966206043    5.69428296951659
H         4.62177111904937    9.51196863672158    6.65268274032915
C         3.18287915854751    8.54125915751894    5.40443924352944
H         2.92834014956428    7.78262207860750    6.13082657893987

