85
CSD_code = RAMVOS | q = 0 | S = 0 | Stoichiometry = C35H43Cl2O3PZr | MND = 10
Zr        6.07784148058808    7.04705956205818    7.37495020601171
Cl        8.19672929354707    7.81925960180615    8.16280638424291
Cl        5.04338589511148    8.08062518889904    9.24902078372040
O         4.41387022375244    7.19704884943240    6.38784900386770
O         7.03919039291124    7.00409557478776    5.56366499968727
O         5.90829781437216    9.47603217243325    6.74606138349854
P         6.57799521416387    7.81107549505858    4.37958621653171
C         6.32871630088613    5.17530691870760    9.00222927425791
H         6.44570468911344    5.39276813063558   10.05920632775520
C         7.37027868608065    4.89970722302491    8.09286271056352
H         8.42685239082143    4.88379886063216    8.32731064281760
C         6.79492853129204    4.54697452499554    6.85965556652852
H         7.33789630018395    4.21361341639745    5.98442490049512
C         5.39421552276263    4.59218732090459    6.99820618124408
H         4.67634667469457    4.27087867600833    6.25249841254244
C         5.09817849347441    4.98162121053703    8.32627265634527
H         4.11724530096167    5.00650776523698    8.78983231759597
C         3.92708612944029    7.52393595804659    5.22138149841151
C         2.52546248195174    7.55273408360257    4.95437282016355
C         2.10630230936448    7.91787282416083    3.69232863830031
H         1.04887115612791    7.94032298589198    3.49354163531231
C         2.96647361264027    8.25460273525283    2.63983595049577
C         4.31823629637996    8.22722211006473    2.90134691085741
H         5.04833782350527    8.45019494824816    2.13845337544674
C         4.79129601434271    7.88457227695388    4.16802050458592
C         1.53795461409174    7.17016103662452    6.05125735755721
C         1.73990105736685    8.07187747699596    7.27770693965325
H         2.73613348895823    7.94585015748224    7.69900058824242
H         1.01376698068368    7.81432394194485    8.04533826335671
H         1.59698983193432    9.11685372981158    7.00746129650196
C         1.78977101817417    5.70918328912198    6.44565179735252
H         1.67492648926494    5.05623658003868    5.58175707899894
H         1.08013542858438    5.40109953356738    7.21030671007048
H         2.79515455149671    5.60288655766147    6.84239223311772
C         0.07721124719781    7.30063172279565    5.60579271520564
H        -0.16055303585359    8.32396546101430    5.32353514414195
H        -0.57043898397108    7.02489259453768    6.43505476412991
H        -0.14657655973720    6.63486205531412    4.77509448824660
C         2.38619059912955    8.61274506848406    1.28064881503407
C         3.47377698264786    8.93605224702386    0.25214761249109
H         4.06526522224713    9.79456714115598    0.56211957527268
H         3.00962125756226    9.17650876893566   -0.70200159229093
H         4.13421896002566    8.08524237055239    0.09995097552844
C         1.57046876424752    7.42370819852364    0.75466972324392
H         1.16934764963864    7.65067876281667   -0.23070870627868
H         0.73928539082365    7.19053542346310    1.41379181837315
H         2.20204641887789    6.54141656456227    0.67608411335356
C         1.47898698492544    9.84255956145978    1.42472738165776
H         2.04599623316504   10.68660785387630    1.81190664379319
H         0.65302623680789    9.64808368993016    2.10274079793922
H         1.06642902320655   10.11892670307779    0.45689324177718
C         7.15516961225321    6.94241514209907    2.88628884926083
C         7.91486722133004    7.53233576215262    1.88794865013392
H         8.20370668869871    8.57047641696491    1.97202157788285
C         8.30251663678503    6.78547966557769    0.78770544021729
H         8.89535942615043    7.24364048165307    0.01000223336959
C         7.93336084943820    5.45477712370988    0.68484245334919
H         8.23885896877776    4.87632355224354   -0.17415704088220
C         7.17416486793423    4.86287798562961    1.68288813557868
H         6.88836428348321    3.82479054366912    1.60166101100645
C         6.78396882851184    5.60707672532768    2.78015089718142
H         6.19061436695721    5.16711722125317    3.57176636284853
C         7.39408628688085    9.43487376684170    4.33553691768460
C         8.63593692794147    9.52587744670979    4.95414028580724
H         9.02167578443485    8.66979537568957    5.49319769557677
C         9.34908762770220   10.71085310263384    4.89177560610941
H        10.31049895511815   10.78597089603335    5.37658334814071
C         8.82568486842452   11.79880158091577    4.21068097967238
H         9.38250363519744   12.72272500823162    4.16055491981768
C         7.58645631731020   11.70667494673345    3.59544629394839
H         7.18032756780204   12.55846124080776    3.06947041865242
C         6.86815700940445   10.52498164208589    3.65487688396112
H         5.89980269457441   10.44651140652681    3.18209034224578
C         6.74781917045142   10.35845524564295    7.51532768530463
H         7.78870582146529   10.12727232557751    7.28993258211064
H         6.55661295814508   10.17763865819944    8.58196211036705
C         6.35542467955780   11.79074209918388    7.12419271110403
H         7.07105989235493   12.21333037779354    6.42054206915262
H         6.32024828769774   12.42939370350186    8.00366299769364
C         4.97473841917045   11.62630812502532    6.47821040513108
H         4.22516692347411   12.28231340221554    6.91400985600198
H         5.02546189851865   11.81884511933570    5.40670039741433
C         4.64459179407147   10.15520613769700    6.74003821312793
H         4.17390333214168   10.03160977596731    7.72466970556895
H         4.01122251776638    9.72537309204811    5.96433992773345

