44
CSD_code = RANCIU | q = 0 | S = 0 | Stoichiometry = C9H12B11Cl11Zn | MND = 6
Zn        9.04938465740003    3.91285360463544   11.83962853449317
Cl        4.38208610820306   -1.20628574979527    8.74226832273682
Cl        3.03944660816487   -0.80502370177393   11.96792466159740
Cl        2.82596386192408    2.67006885161105   12.67646295062120
Cl        8.67107868860274    1.47581773460493   12.12723244190854
Cl        8.09023441759790    0.08512592753739    8.76605254643694
Cl        4.06927114699463    4.42735211103791    9.83819967271997
Cl        6.76490911286255   -1.80526395870395   11.72090973599519
Cl        7.84821137459828    3.66657197428195    9.67624204556729
Cl        6.63243575026374    4.03189751506476   12.74037641378180
Cl        5.78586684307919    0.74147807744319   14.28043025922063
Cl        5.01193243333113    2.02022376749580    7.39251562196698
B         7.02318821011836    1.31310755397499   11.44954924272790
B         6.59091368887738    2.48599279352873   10.12879111466574
B         6.11403609541352   -0.21486540899808   11.25506432166339
B         5.38547668525971    1.70009118525069    9.09595481354824
B         4.87488713427023    2.93133930153340   10.36223645416529
B         5.07772018208891    0.04537597770034    9.79254879450601
B         4.37560526399681    0.25556337468443   11.47534356397105
B         5.90906079166735    2.69289964441147   11.80532594217952
B         5.59582056839936    1.04356383171936   12.53158088356115
B         6.74840617648799    0.70725424792224    9.76735412352827
B         4.25601220885042    2.04437972547791   11.83806742379803
C         4.08239678130169    1.41565264088893   10.21609326185292
H         3.08250130529548    1.41883965232013    9.80252732627359
C        11.80345903493684    2.42377929126329   10.99629110811166
H        11.70382306335993    1.53784939298444   11.60588187243677
C        11.05279125588927    2.55708026833251    9.83525414362569
H        10.38068774366173    1.76814990054612    9.52934188551439
C        12.89074846061002    4.51335873783591   10.53485874455844
H        13.61568612167788    5.26916221250916   10.79914177389630
C        11.22068059120965    3.67449421019935    9.03011435437043
H        10.65086880856536    3.77050428843557    8.11788912047856
C         9.95894624414005    5.68167214154558   12.25512262616828
H         9.64152406316411    6.02379857626968   13.23836563995824
H        11.04281519891417    5.60532719528207   12.28013777132564
C        12.13773691408847    4.65114061654489    9.38051720997835
H        12.27719639840979    5.51430212059471    8.74651612136259
C        12.72304536066030    3.40157614655748   11.34340059388994
H        13.31878839288263    3.28852277611389   12.23706612246608
C         9.55958054674093    6.72792818813765   11.21790047976460
H         9.90901654732227    6.45051264287400   10.22677079238962
H        10.00630925855732    7.68758083717286   11.47808233819774
H         8.48084990016054    6.86014978294441   11.18066682802274

