123
CSD_code = RANDAO | q = 0 | S = 0 | Stoichiometry = C56H54Cl2N10Pd | MND = 4
Pd       -0.48411535539545   10.71479926336904   -5.56918034467066
Cl        1.06883080418549   10.47468677516127   -7.23638595342205
N        -1.44831288532637    6.21586696860823    0.82769045653119
N        -1.93392383521037    5.56512188503898   -1.41179450206375
N        -2.59712806739337    6.41563160754902   -3.52713584301160
N        -0.53364956322483    7.71695454336543   -5.05304736308008
N         1.29002844744441    8.62934674410515   -4.38127714060790
C        -1.24525629854175    7.16563851732372    1.81614345677518
C        -0.00420756715417    7.78287282446845    1.96436084218391
H         0.77769349097480    7.57315558193376    1.24848711639331
C         0.21869467867520    8.64601399552109    3.01961430561165
H         1.18329833042850    9.12206569667264    3.12309204556725
C        -0.78475800479152    8.90521411187686    3.93805020912658
H        -0.60719603014244    9.58266590489866    4.75976603314464
C        -2.01657068786979    8.28715825005069    3.79786599290956
H        -2.80382821155017    8.48309890528820    4.51141969653867
C        -2.24903821184775    7.41858841216948    2.74962603645044
H        -3.20710849591981    6.93320593899496    2.63500012443087
C        -1.73042155535896    6.45433790384857   -0.36996789127655
C        -2.01124637140460    7.65404612821152   -1.27925676507780
C        -3.23115903591682    8.47695033467573   -0.89061245871799
H        -4.12504600810951    7.85615169503261   -0.85980417248037
H        -3.07667612962016    8.91567523166542    0.09417643279454
H        -3.38240775733483    9.28228580824612   -1.60654282174872
C        -0.78902920148726    8.53223306721807   -1.51405645055292
H        -0.99778573031227    9.25911303412784   -2.29773583194270
H        -0.54972440728634    9.07408428816251   -0.60071279224447
H         0.07277173192717    7.92828103043928   -1.79752091828561
C        -2.24525573708231    6.55890793034922   -2.33000837580696
C        -2.87540550357095    7.54831554611813   -4.36742701837373
H        -2.82205138517829    8.50935176509587   -3.84423647726830
H        -3.88209331838469    7.41907876705560   -4.77486509512171
C        -1.87972501911598    7.55851814420069   -5.53688342571925
H        -1.94811969110852    6.62200768620695   -6.09542136919437
H        -2.10674091056616    8.41422127057701   -6.18770618122795
C         0.26633129880906    6.70684361177061   -4.58759692782125
H        -0.04890672379256    5.68386012488934   -4.58460914194068
C         1.42232152622420    7.27734380510670   -4.17656472856555
H         2.30095680587703    6.84363800725267   -3.74523710248240
C         0.08179618556613    8.90106671742989   -4.92261294007801
C         2.26925317257471    9.60975893655188   -4.12824228262993
C         1.89036189521514   10.83291016831548   -3.57557419572262
H         0.85482335870181   11.00370213892301   -3.27620942978848
C         2.85763168860389   11.79834120455685   -3.34358581889786
H         2.57564928007569   12.74064292051703   -2.89675972655097
C         4.18297521693137   11.55664821639936   -3.66547445387112
H         4.92869382593959   12.31644332531558   -3.48733648966373
C         4.55142105601901   10.33913329173056   -4.21207914365825
H         5.58287440312985   10.14904234545752   -4.46716563823033
C         3.59964125050163    9.36249846618935   -4.44236237139945
H         3.88003805375980    8.42028980661107   -4.88882626218821
C        -1.86312704984828    4.17865687093250   -1.50318380538294
C        -1.49701890262198    3.42620791079033   -0.39002844709194
H        -1.28004357571570    3.92884644290072    0.53863225490028
C        -1.42167246279402    2.04986492633466   -0.49267116653320
H        -1.13895224178419    1.46725208829956    0.37163210991147
C        -1.70588243358349    1.41692416010312   -1.69179690217912
H        -1.64506062701435    0.34137710451137   -1.76497984781068
C        -2.07150539469019    2.16953007796734   -2.79593057878768
H        -2.29758713411131    1.67997360069417   -3.73200825924135
C        -2.15229999101527    3.54657989435198   -2.71007896938484
H        -2.44463306765356    4.14648331855217   -3.55663517141924
Cl       -2.03715105031535   10.95481854715687   -3.90186012917316
N         0.47990330638086   15.21371832153124  -11.96597525550430
N         0.96556595667741   15.86445229462247   -9.72649984458547
N         1.62880315700052   15.01393715434196   -7.61117323170917
N        -0.43468043444124   13.71261288936147   -6.08526980702023
N        -2.25838962145175   12.80024497872006   -6.75699749296531
C         0.27686291719655   14.26395886556035  -12.95444250340832
C        -0.96420336402179   13.64677486233206  -13.10272230110799
H        -1.74612867932272   13.85651727117155  -12.38688246036613
C        -1.18708742297338   12.78364749086717  -14.15799068205110
H        -2.15170469389199   12.30763353110255  -14.26151862066571
C        -0.18360009677483   12.52441731953425  -15.07638066300167
H        -0.36114799281068   11.84697798402885  -15.89810891490769
C         1.04823147649421   13.14242120208043  -14.93613173825656
H         1.83551572940140   12.94645627356026  -15.64964948490766
C         1.28068237122421   14.01097333056815  -13.88787406037951
H         2.23876601556539   14.49631732391137  -13.77319651058337
C         0.76206291863751   14.97524210915081  -10.76833070665104
C         1.04291030435660   13.77553071820440   -9.85905677628353
C         2.26283115071322   12.95264395773204  -10.24771041640916
H         3.15670804885960   13.57345500343547  -10.27853058661468
H         2.10834356360672   12.51391541453695  -11.23249602923734
H         2.41409792823867   12.14731303886139   -9.53178035012438
C        -0.17929870473932   12.89732781342849   -9.62427943905825
H         0.02945897077598   12.17043956023964   -8.84061067252184
H        -0.41858814093777   12.35548812129911  -10.53763387208369
H        -1.04110959479103   13.50126579859501   -9.34081493010425
C         1.27691502720417   14.87066195428798   -8.80829548688508
C         1.90708462471768   13.88124898682650   -6.77088978296903
H         1.85375250905605   12.92022010995840   -7.29409303570851
H         2.91376501638249   14.01049620284709   -6.36343887239562
C         0.91140021015382   13.87102218124373   -5.60143563401928
H         0.97980748490176   14.80751067373204   -5.04286108533734
H         1.13841116837279   13.01529046363340   -4.95064641874297
C        -1.23463831963078   14.72272795418245   -6.55074838304936
H        -0.91937278860829   15.74570214374829   -6.55376964845706
C        -2.39064782112286   14.15224504505677   -6.96175188749147
H        -3.26927369059795   14.58596106508153   -7.39308745386712
C        -1.05015925622116   12.52851603002822   -6.21566233288930
C        -3.23763282166168   11.81984439117206   -7.01000806323464
C        -2.85876365931179   10.59667230756222   -7.56264852436392
H        -1.82322406689299   10.42585229983354   -7.86200100504411
C        -3.82605441759356    9.63126230801555   -7.79463795333712
H        -3.54408400844692    8.68893170995459   -8.24141025995453
C        -5.15139665322104    9.87299360253749   -7.47277020537400
H        -5.89712825691092    9.11320649739829   -7.65088820921171
C        -5.51981897095641   11.09052333842219   -6.92618078514105
H        -6.55127463462549   11.28064993772353   -6.67112928917775
C        -4.56801894127181   12.06714166151462   -6.69590718243571
H        -4.84840258733851   13.00937753611025   -6.24949278470615
C         0.89477681304843   17.25091776244820   -9.63512019274116
C         0.52861623788538   18.00334816125356  -10.74827116876804
H         0.31160107531648   17.50069369628907  -11.67691399064094
C         0.45327230710525   19.37969197441809  -10.64564941466451
H         0.17051213089697   19.96228862466136  -11.50995075652106
C         0.73753755532489   20.01265222467473   -9.44654670896674
H         0.67671582779883   21.08819944520629   -9.37337930850108
C         1.10321624402614   19.26006506974194   -8.34241809935752
H         1.32934441706716   19.74963915039718   -7.40636109849231
C         1.18400907833766   17.88301378119023   -8.42824951909567
H         1.47638322746711   17.28312549284403   -7.58169609883545

