102
CSD_code = RANDOZ | q = 0 | S = 0 | Stoichiometry = C34H58N5Si4Y | MND = 5
Y        13.41309898339317    5.96836694464964    4.20515702760071
Si       16.22116994343837    7.93151348678096    4.85691699045140
Si       15.18788501880097    7.94865077481029    2.02798216394207
Si       11.30490537914348    3.83721903230952    2.40178533457817
Si       14.26190136633738    3.38036529836052    2.11037646876366
N        12.25102126353638    6.25513544984705    6.14214327767930
N        13.92691105361749    4.10095200875253    6.20588361484139
N        11.65246530971925    8.12270302883555    4.24356937920868
N        15.03240352305964    7.48579707652124    3.68892260374498
N        12.92932229602291    4.18905399212441    2.86433886597427
C        12.33222748078259    5.48224247762500    7.25276511538719
C        11.46998968354859    5.97989985411733    8.25021788489432
C        10.85374986879572    7.09430148695063    7.71496587765868
C        11.35598322849810    7.23855969400300    6.40597279394445
C        13.18681678827984    4.34432318907516    7.22970858922491
C        11.09928536573677    8.21373282328511    5.40156928929848
C        14.64122575641744    2.88460530477738    6.19620824243795
C        16.01638866471532    2.87147240694077    6.44512030927694
C        16.69723563921031    1.66390527322808    6.38871525740354
C        16.03145962526869    0.48712219509408    6.10052250331244
C        14.66772497771360    0.50819149703023    5.87080268783782
C        13.95468605711323    1.69645370051502    5.92144686240853
C        16.72413477315941    4.14591038537064    6.78678710136028
C        12.48050644016044    1.72928823871467    5.65508994140268
C        11.45055787454760    9.18667630726712    3.34007340761692
C        12.14710249731350   10.38553458833466    3.52867679998557
C        11.97712076882105   11.40922306184074    2.60859487044658
C        11.12513111085607   11.26150523061987    1.52915546230457
C        10.42660838959253   10.08009811452019    1.36277515799044
C        10.57408159195740    9.03424785070287    2.26202226268774
C        13.08324428778677   10.53289818619284    4.68933131508983
C         9.80063448566246    7.76207682499896    2.10910012271236
C        15.41660268883437    7.64963110270084    6.57825518508963
C        17.85982569157604    6.92835068235990    4.74530296218110
C        16.82565742270095    9.74702385201354    4.84223352842353
C        16.69571183216365    7.15635186141754    1.14869490700319
C        15.32055092235546    9.82503843229893    1.68206805191151
C        13.58559939630596    7.37053733224045    1.15061093912044
C        10.78650585900450    4.58982564439585    0.70837810706679
C        10.17767629996775    4.53831328956153    3.79208755616884
C        10.82630640298918    1.99370482304298    2.21852278698900
C        14.44584141567216    3.77541382941608    0.24382075650073
C        15.84302081976358    3.96488057703220    3.02106640237913
C        14.26626130714495    1.47185248961524    2.23384609487767
H        11.33121210262097    5.56794680510668    9.23135940711135
H        10.13059387357844    7.72866098789633    8.19055865199193
H        13.18245288349763    3.68397654732008    8.10215339360276
H        10.42580138573492    9.03921248276445    5.65079327430125
H        17.76110551489459    1.65016018008946    6.57605279306299
H        16.57343329485106   -0.44550478413126    6.05787029922879
H        14.14498801062787   -0.41146350806589    5.65042169185598
H        17.80198313649079    4.00675457898449    6.75963873520208
H        16.44530085834890    4.93104025379924    6.08490172766980
H        16.44518119560583    4.47916961166321    7.78741911696887
H        12.13804034859752    0.76250171537833    5.29404914602927
H        12.26264382075515    2.49317275833629    4.90732158827806
H        11.92252666418739    1.97039522418206    6.56013041730022
H        12.51892778160953   12.33433144735807    2.74310371165649
H        11.00393299678811   12.06717600207031    0.82094862267002
H         9.75411039371521    9.96359247484481    0.52541565697788
H        13.66496730630400   11.44657018002870    4.59425763921074
H        12.53753171816325   10.57588896944270    5.63199830197020
H        13.75729374209761    9.67598820693474    4.72491403847295
H         9.30805729742420    7.72449085054685    1.14088423277059
H         9.03944808131334    7.68441397957270    2.88640630831784
H        10.46525161908202    6.90476984463056    2.20872123447938
H        14.63409363243620    8.37900783525204    6.76975818321049
H        14.97413229227819    6.65755329818070    6.66828216489500
H        16.15193089448580    7.75166479243367    7.37033087334245
H        17.71772572118786    5.92745819423274    4.35196711041184
H        18.34168538047644    6.83956460063010    5.71437841640759
H        18.55785736150893    7.43371060741661    4.08533118704108
H        17.37992752560001    9.97206438571346    5.74835326136890
H        17.49085612679747    9.91953287939084    4.00348420326645
H        16.01460725278481   10.46048642080211    4.76764934189818
H        17.61332097781217    7.39573428182123    1.67498668807839
H        16.79437939104172    7.52786512233454    0.13349854194076
H        16.61781692866481    6.07578318328674    1.09833619463932
H        16.26869713842536   10.22673560237160    2.01781178486039
H        15.24174038126706   10.01776710189911    0.61661525093697
H        14.53005478773185   10.38099548283660    2.17151408775221
H        13.76333302108601    7.18667431868673    0.09564011760516
H        12.81284497512641    8.12993122690022    1.21738678926491
H        13.20468043902803    6.44162732627745    1.58849199421941
H        11.30135310251918    5.51681494728984    0.48001576743139
H         9.71884005460445    4.78298652555716    0.66606372339024
H        11.01768271531100    3.89228261478451   -0.09036015942071
H        10.52041294922446    5.51005432665969    4.15141144423435
H         9.15754157990972    4.65870945536877    3.44121510411045
H        10.14591431423666    3.86588863660971    4.64447163790616
H         9.74699508393912    1.88038983154546    2.18397060615264
H        11.22501835564549    1.58680294276959    1.29598455750500
H        11.19588588769433    1.38112160357947    3.03126298460644
H        14.62763760018981    4.82951235612976    0.06505520962856
H        13.54531609665874    3.50136358710312   -0.29480984464302
H        15.26974779635557    3.21962919563704   -0.19280129240433
H        15.74610206620437    5.00078898655751    3.36391774026587
H        16.70918771134008    3.91552064173575    2.36856451850117
H        16.05059842715148    3.33162597119113    3.87777596678391
H        15.22969484818168    1.07575461825566    1.92814911755049
H        14.08340171775896    1.13479681389686    3.24708911933336
H        13.51276188751722    1.02960577582547    1.59370275965917

