65
CSD_code = RANDES | q = 0 | S = 0 | Stoichiometry = C29H29AgBrN5 | MND = 2
Ag        3.80268216298984   -1.28919652108825   11.66964092735119
Br        2.54624562601794   -3.25787917928299   11.05954255213311
N         3.80336237995801    0.69165390582532   17.39587788837843
N         4.13065473370795   -0.72410206316282   15.50713410360286
N         5.69847984877984   -1.23219478478500   13.77127810171335
N         6.22573061579367    0.57555492066014   11.57779093364547
C         4.16913542255903    1.71236892579794   18.25606774879830
C         4.15291997147947    3.04755410061573   17.85577549062983
H         3.91327443386835    3.28683066894617   16.83022357558584
C         4.41470895573876    4.04836069464506   18.77193564324162
H         4.39689246895820    5.08033313087286   18.45166488596567
C         4.70184191375675    3.73652678738814   20.09003210353601
H         4.90969683256395    4.52177862417776   20.80100636971677
N         4.56918296754224    1.91769513170888   11.43399111714185
C         4.71267201007695    2.41057760692063   20.49226399795428
H         4.93043285962316    2.15985828568230   21.52010142986692
C         4.44002755725431    1.40276233535075   19.58871569958873
H         4.44214562564410    0.36763949612432   19.89571408064642
C         4.44436778106274    0.28821080491570   16.39827577552785
C         5.79122989219161    0.53567584559472   15.70715928411346
C         6.97880177169380    0.21027108052107   16.60492339688739
H         6.98327253352428    0.88712697060005   17.45854451420958
H         7.92079403426877    0.32433146095586   16.07181028058351
H         6.91150583435718   -0.81100149450718   16.97539246388524
C         5.91406394611584    1.90191803927590   15.04513890333064
H         6.04281744474105    2.66904270697342   15.80599792766727
H         5.01711314257263    2.12871931249116   14.46993977398081
H         6.77296141126047    1.93708374180253   14.37672413860775
C         5.30337665184290   -0.59755625942094   14.78970488392996
C         7.02263507117761   -1.00268717859925   13.25425260601757
H         7.57535900086393   -1.94211534582995   13.35495422223989
H         7.55953172694327   -0.21808654125061   13.80305114776777
C         6.96618767885734   -0.63783905398611   11.76614079617872
H         7.97792369575688   -0.52001907213579   11.37236346468990
H         6.45382180957745   -1.44222764014495   11.22792373703873
C         6.74793175081883    1.84007363468511   11.57020158422683
H         7.80073528661378    2.03257003094891   11.61218872051066
C         5.69755600920965    2.69018843700208   11.47698609354162
H         5.66942054464694    3.75938517480458   11.43110734428884
C         4.88156340587169    0.60959687071540   11.50205677010791
C         3.21882563505597    2.42649717553409   11.38479309877992
H         2.60875736379147    1.70681066348157   10.82991478476124
H         3.22279278174306    3.38246664000236   10.85487565675569
C         2.66298111804057    2.59495563748811   12.77896290536604
C         2.12339492585352    1.50464001829039   13.44897738485663
H         2.08509835229175    0.53594575678114   12.95722651013089
C         1.62218738024142    1.64699912600093   14.72979187808471
H         1.19153824271503    0.79527308127841   15.23181175622868
C         1.66596396826389    2.88045270641741   15.35837939333646
H         1.27363842273990    2.99119827957181   16.35791331477254
C         2.21483390657069    3.96941538022900   14.70209641631659
H         2.25172952584756    4.93383922910344   15.18749973890119
C         2.71172929217584    3.82723896848307   13.41765358671938
H         3.12975301428616    4.68271876181544   12.90519366510806
C         3.06202940336617   -1.62519451106289   15.46477354814550
C         1.98013119090842   -1.44148787880534   16.32299343734928
H         1.98741421509082   -0.61528616410585   17.01563504350873
C         0.92364705569485   -2.33251676132901   16.28996707546933
H         0.08405383609777   -2.18406646596309   16.95333810320730
C         0.93837828238808   -3.40730856079631   15.41581601112041
H         0.10731767461013   -4.09517775223028   15.38855498095055
C         2.02705061626660   -3.60255420491143   14.58362060622517
H         2.04957030441625   -4.43871128666526   13.90318053661006
C         3.09170735783860   -2.71819482287837   14.60474625917926
H         3.95871932326293   -2.89193660716652   13.98418982925809

