57
CSD_code = RANGEV | q = 1 | S = 0 | Stoichiometry = C22H28AuN4S2(1+) | MND = 2
Au        5.91542485475409    3.54861380841269    3.61568840733223
S         5.09633464432203    3.60231198751132    5.80435365796942
N         7.66652459354241    2.96072145859372    6.37335503087643
N         6.41284133916332    3.45572838864312    8.09790942823033
C         6.44678786171549    3.33054766291346    6.77929478974039
C         8.58168633991020    2.78406640128255    7.48772213286564
C         7.70638144643573    3.15924242758050    8.69719285435674
C         5.29460476156988    3.90301996533636    8.86029129012559
C         5.18588724640612    5.25746326811846    9.17357320991098
C         4.09322073562730    5.66729274732290    9.92640727067146
C         3.14137619041508    4.75690479035320   10.34528089461064
C         3.26095374245195    3.41967296847436   10.01221375106437
C         4.33871490594125    2.97007335335179    9.26324577925484
C         4.46860798077780    1.52777261272876    8.88091447790857
C         6.21152471338259    6.25121940875744    8.71966728235398
H         9.44775570174715    3.44225696410086    7.37901701175543
H         8.93345984243582    1.74963602871467    7.53460615570975
H         7.60669311951848    2.34046210217347    9.41440768734499
H         8.08223060356567    4.03596852275894    9.23038656343638
H         3.99065644989616    6.71140764102797   10.17949150586776
H         2.29774113023663    5.09201101345854   10.92838068306581
H         2.50981848311550    2.71464438847177   10.33357288898751
H         5.40313141918876    1.10520259457036    9.24774823360947
H         4.45063921737873    1.42114020929295    7.79673104667631
H         3.64669574581638    0.95154651914318    9.29508380465406
H         5.77896955540361    7.24736547054258    8.68892739095809
H         6.59051776654923    6.00882219904046    7.72858997658879
H         7.05227697783296    6.27673673191748    9.41388368212081
H         7.91265462842598    2.77766039079369    5.41510387795143
S         6.73369088843921    3.60223587395221    1.42663722690443
N         4.16348152189750    2.96066406502628    0.85765384414891
N         5.41716063023062    3.45565362323780   -0.86690399422677
C         5.38322504534028    3.33047908856523    0.45170986850343
C         3.24832488334212    2.78397295412545   -0.25670864757105
C         4.12361158293400    3.15919120459915   -1.46617800531054
C         6.53538519646539    3.90296723498370   -1.62929275183441
C         6.64407391542463    5.25741218792552   -1.94257915881796
C         7.73671029624998    5.66725661703461   -2.69544885906993
C         8.68856084651254    4.75688422601088   -3.11434330433603
C         8.56902342055024    3.41965389052909   -2.78125411579386
C         7.49128366915844    2.97003728137917   -2.03226571342557
C         7.36142259895678    1.52773399639719   -1.64993319131592
C         5.61843139703633    6.25115349162378   -1.48865082866742
H         2.38222957326462    3.44212713737326   -0.14799803870189
H         2.89659519047293    1.74952708134205   -0.30359357450147
H         4.22328516470304    2.34043818447914   -2.18342542137904
H         3.74775213348545    4.03593783450348   -1.99933172374131
H         7.83926789519069    6.71137738581064   -2.94851214464835
H         9.53218832688705    5.09200688397981   -3.69744425716826
H         9.32015541652440    2.71463476706414   -3.10264122023753
H         6.42682919361287    1.10518190217306   -2.01660903617406
H         7.37957352637822    1.42109807531615   -0.56575334509483
H         8.18325579283839    0.95149451844874   -2.06424057744981
H         6.05097253576799    7.24730561781024   -1.45791912522367
H         5.23946081290981    6.00875178659776   -0.49756614852532
H         4.77766470686869    6.27666231115970   -2.18285021228836
H         3.91737184103942    2.77754875327851    1.81590169001414

