30
CSD_code = RANGOD | q = 1 | S = 0 | Stoichiometry = C10H12N6ORe(1+) | MND = 5
Re        8.70611506343982    9.81231960134339    9.12097029101522
O        10.16268252524442    9.40761065026415    9.81395321607266
N         5.67860443524641    8.17256300028668   11.51151181546514
H         5.54876142035463    7.19938915462234   11.25645056206427
N         7.25546085807532    8.52298158633662    9.76485986546956
H         7.11253085113860    7.55879815830813    9.47460392854777
N         7.65165763406323   10.91248111019757   10.38479527673959
H         7.79139645335648   11.89624708245051   10.60199189938756
N         9.16118100634194    9.50243189072827    4.96568532233243
H         9.04058350491589    8.53286754186022    4.69276508360136
N         8.60319810812939    9.03787189528933    7.23132430931791
H         8.44545505357395    8.06804812027443    6.96875114944443
N         8.93876069874200   11.40371959949048    7.96651821146117
H         9.03308783488806   12.37000011258385    8.26990795176829
C         6.55260680031607    8.91963467501331   10.81788912410828
C         6.75763485730686   10.29379080703466   11.19137869096371
C         6.03748396563971   10.80949609117630   12.25374234197673
H         6.16749671397817   11.83648586865171   12.55471218642903
C         5.14339201511002    9.97777417361708   12.94144396229075
H         4.58294004906471   10.36556126967934   13.77487550537507
C         4.97884949827095    8.67555349731989   12.56641295765246
H         4.30850885543605    7.99861156940195   13.06729614911041
C         8.98241577075062    9.84747081897737    6.25102635338741
C         9.17609626385302   11.21699685146868    6.64688963579194
C         9.53344700051970   12.14401669947337    5.68454847604416
H         9.68274186848352   13.17800670434434    5.95068587428979
C         9.70955657014498   11.72113664622974    4.36007629795424
H         9.99507204748041   12.43195251928928    3.60355248893087
C         9.52610787744693   10.41194875110635    4.01958455571632
H         9.65497439868803   10.04033355318124    3.01769651729167

