71
CSD_code = RANHIZ | q = 0 | S = 0 | Stoichiometry = C32H32N2O4Zn | MND = 4
Zn        6.18223318152721    6.68171702547550   13.02649469645316
N         5.41147220000065    5.14035674198025   12.05968754914953
N         6.69945852830352    6.76198886653059   14.92790338948893
O         7.62545643591752    6.97553947448431   11.93172382100457
O         4.84081324527381    7.95123447262069   13.13679645858630
O         2.72836032913067   -0.44110628862913   10.29834113104922
O         7.84228283314089    1.07006812541795   12.75780746231257
C         8.00590365176438    6.20958440916553   10.96947871646246
C         9.24209134784703    6.48799606418285   10.32952823831154
H         9.79679197514037    7.34311370140661   10.68671700438256
C         9.72434441955159    5.71220047497290    9.31130134822117
H        10.67558775885298    5.94946923778815    8.85633170022474
C         8.99357688685756    4.61320601717604    8.84831011323386
H         9.37626751365583    4.00811037635342    8.04042884120149
C         7.78591085280333    4.32611935962658    9.42586297717396
H         7.20327545280481    3.48595981603808    9.06902069824801
C         7.26671836738855    5.08551974162048   10.49315374785112
C         6.00101570509667    4.68971879998320   11.00911006759945
H         5.49808137579342    3.91125582208807   10.42604447266426
C         4.07017013325385    4.66007985489658   12.38018137952889
H         3.37359298584802    5.39507579424423   11.95317034033957
C         3.87896386247272    4.65965525211755   13.89716696195839
H         3.99180297125252    5.66638935304247   14.29025327495949
H         4.61185071627403    4.00940319305785   14.36754636467716
H         2.88109559221433    4.30052197191722   14.13917945084077
C         3.74085622455921    3.29455482021791   11.82155772966495
C         2.65105584244191    3.10819814331196   10.97824527033418
H         2.03910546574289    3.95373655997741   10.69888032886404
C         2.33879503780890    1.85556509203676   10.49327185621821
H         1.49320913237224    1.70532990078799    9.84095804269288
C         3.11757693359473    0.74903410902437   10.83430987301267
C         4.21236337590473    0.92808532285849   11.67317594115237
H         4.84417690405267    0.10186169800413   11.95808820142787
C         4.50869375048211    2.18879770811681   12.15903552674016
H         5.36513559938779    2.31439087010404   12.80258047582648
C         4.36033621008129    8.47676143068546   14.20648049669074
C         3.23976375565840    9.34292135096751   14.09728690130324
H         2.85728856587672    9.52056177437663   13.10347987863710
C         2.66488596986504    9.92700966037395   15.19112813134173
H         1.81133787267443   10.57850927992428   15.06838629830156
C         3.17188848180613    9.69086928360320   16.47472037279748
H         2.71210806351814   10.15648612678869   17.33285927067537
C         4.25602494970872    8.87094482218944   16.62278285586433
H         4.66148992909437    8.68561398295880   17.60878577591546
C         4.87654594007284    8.24551300273616   15.52070204996754
C         6.01847249134539    7.44438321606867   15.78190305523143
H         6.34408882507110    7.42759233076919   16.82985690922883
C         7.90690017076646    6.09116191505048   15.38523278329900
H         7.83759995114675    5.91357925688710   16.47144719138638
C         9.09892534497436    7.00940820278297   15.11205316194755
H         9.03931084913754    7.88587412615920   15.75422240564112
H         9.07582354131509    7.34399259508582   14.07803831227123
H        10.03176208262565    6.48741060367037   15.31000008746415
C         7.98781789318348    4.75747227764051   14.68131504378297
C         7.23267621880238    3.69263428043799   15.16827988681110
H         6.64823554225863    3.82112016204116   16.06901493054402
C         7.22142107336399    2.47526702028862   14.52334995079720
H         6.64309976328631    1.64727586142171   14.90480151944390
C         7.95807521736491    2.29182804102806   13.35081280742137
C         8.73647984929288    3.33848524897325   12.87553481236581
H         9.33361271216447    3.23082894072121   11.98409506729303
C         8.75159570825419    4.55208791645711   13.54301718710682
H         9.37986542218600    5.33623469860009   13.15663780067330
C         8.50355097485094    0.85925733709457   11.53368918436506
H         8.23148893354209   -0.14790168835095   11.22109988486790
H         9.59049621419638    0.91884778938640   11.64780544660296
H         8.17921529350627    1.57845757128740   10.77489051690133
C         3.46797725796290   -1.59426793584250   10.61698289007757
H         2.97630335435001   -2.41345022232217   10.09460845542766
H         3.45812730638403   -1.79413407094339   11.69330782235185
H         4.50422168179593   -1.51626807097502   10.27184740331840

