84
CSD_code = RANJIA | q = 1 | S = 0 | Stoichiometry = C24H54ClFeNP3(1+) | MND = 4
Fe       14.88911526279072    0.29995137939869    0.06418796091695
Cl       13.58917626345844   -0.76732825832022   -1.22071253606285
P        13.47655695290704    0.16327444914333    1.78008781291851
N        16.23822854402068    1.44114485216335    1.33595229092266
C        15.61032811594960    1.64582947286907    2.65549179073192
H        16.02425815956564    2.54390749944670    3.13173910147331
H        15.85355096971134    0.79462796500636    3.29183057526517
C        14.09703946970924    1.74291751762625    2.54533739729169
H        13.81498233779958    2.56784003478878    1.88433981753919
H        13.65764714743317    1.93044962362979    3.52461170801437
C        13.40066434550312   -1.00618935967373    3.24169391150612
H        14.46609062986131   -1.12817999624498    3.49100311102476
C        12.67765471334161   -0.53182547327505    4.49786665419617
H        11.60696874349814   -0.45935061388547    4.33107486076546
H        13.04467192735320    0.42580031259260    4.85868965407602
H        12.83677634620426   -1.26410905864666    5.28800710820392
C        12.85641843492637   -2.36635683145768    2.79647289939843
H        13.29174098203948   -3.16568249456894    3.39289360458153
H        13.07295095119776   -2.55194370601446    1.74690779616050
H        11.77985887659700   -2.41070091480381    2.93019586718998
C        11.74816403489291    0.68017206893489    1.26451133383182
H        11.93934211834086    1.23240560281819    0.33004668783785
C        11.00978585264559    1.61158166518522    2.22357741081937
H        10.04749828564116    1.86655819498771    1.78251504704669
H        11.54650112649045    2.54009865869738    2.40102570024190
H        10.81753665484281    1.13449396862376    3.17913656932635
C        10.88146021505830   -0.52320202557659    0.90409606257987
H        10.53222713935319   -1.03427781510278    1.79602971356855
H        11.42941727938383   -1.22369579301857    0.27830340780339
H        10.00854923942027   -0.18890598780434    0.34706933990733
P        16.29682936771309   -1.34468100104229    0.31349987645543
P        15.63562494045130    1.55791171712116   -1.59434199330542
C        17.52775854534115    0.74877359677038    1.52104219152062
C        16.49016684568526    2.75684803649225    0.72206996583165
H        18.06976663970606    1.19636158395027    2.36422292497115
H        17.28413152969080    3.27639747120428    1.27642192376839
H        18.12374963978520    0.89592316842483    0.62090819748931
H        15.57676266175717    3.34565573303873    0.82367313396740
C        17.34463421305514   -0.74652481583344    1.71886325657716
C        16.85823751457906    2.66983607759486   -0.75475235062977
H        17.85391241810621    2.24370286010349   -0.89696642024109
H        16.81654084691622   -0.96912869064850    2.64819715960319
H        16.86663208678157    3.66908774904142   -1.19024352884677
H        18.31435304995630   -1.24114103938855    1.75314428375021
C        14.08861475667077    2.63869226425097   -1.61701034546501
C        17.50662470206334   -1.47931208181673   -1.11142961160393
H        13.62207883868618    2.39814859519584   -0.63721641564549
H        17.49382896345678   -0.45948069512568   -1.52448055930975
C        14.29647117471120    4.15103516510568   -1.68347935458246
C        18.95268340682942   -1.83708467786429   -0.77998001844682
H        14.85437584148689    4.43479710314403   -2.57110253668286
H        19.02823854887735   -2.78433988386513   -0.25597466279623
H        14.80710921040136    4.55054617982477   -0.81031847168967
H        19.43825053922011   -1.06745347784565   -0.18402336026949
H        13.32116427506496    4.63324022811971   -1.73790139750174
H        19.50798337247581   -1.92921672979994   -1.71211370518710
C        13.11026170073004    2.19684730103945   -2.70327343842746
C        16.92791123377014   -2.41461395680088   -2.17024071712197
H        12.12985126431071    2.63294361333529   -2.51696760359949
H        17.39279606795412   -2.22770087377845   -3.13565415534737
H        13.00028382339468    1.11470802832745   -2.72054593394106
H        15.85426780521654   -2.26164945527907   -2.26569768986463
H        13.44218280108938    2.53379112131036   -3.68111111572204
H        17.11122198479325   -3.45270945500772   -1.90857370542990
C        16.35180491167419    1.42889567625448   -3.31358675454918
C        15.84583667845613   -3.04844279949834    0.92893295112994
H        17.35823260009010    1.02780014211397   -3.11872207136198
H        15.35976484279393   -2.80462545369658    1.88373616010556
C        16.51456204656895    2.74442927552483   -4.06865594723306
C        17.03022700216420   -3.96621198476755    1.22314533401143
H        17.05147280180988    2.55069613727788   -4.99570050245787
H        16.66315677429488   -4.85370396880210    1.73579064656985
H        17.08696095860049    3.47390305665290   -3.50007374041789
H        17.76892919609632   -3.49254918371310    1.86474921889592
H        15.55162454302837    3.17234602702574   -4.33232164899332
H        17.51043636587842   -4.29562139559509    0.30650938679699
C        15.58336934572591    0.40018217849192   -4.14310054024462
C        14.82214891412942   -3.75814367467374    0.04569288640761
H        14.70884235779721    0.84561209874107   -4.60689080646577
H        15.29938966715367   -4.24563728140283   -0.79809334355571
H        15.25062611909534   -0.42996764688643   -3.52422822888647
H        14.08467853347582   -3.05960413541650   -0.34154538881286
H        16.21753381921823    0.00964048323192   -4.93573914361487
H        14.30734079128975   -4.52431324761407    0.62167505125900

