63
CSD_code = RANJAT | q = 0 | S = 0 | Stoichiometry = C30H26Br2N2O2Zn | MND = 4
Zn       -7.66717023718425   -6.51610700623129   -2.62811895864005
Br      -12.67587739502327   -6.21760523132135   -7.09474368593922
Br      -14.12865167837870   -5.20637579223579   -1.56494952069175
N        -8.99620540698185   -7.57976908965075   -1.59773260071475
N        -7.88762716458153   -5.21111064441389   -4.11471754661473
O        -6.94026772934807   -5.62656371364789   -1.18543360443704
O        -6.55681103279094   -7.67901849283379   -3.53049260958125
C        -7.32945528129591   -5.68065242452006    0.04060821149967
C        -6.67892467470737   -4.86026684024888    0.99861707374942
H        -5.86652530165438   -4.24399337929965    0.64352539429904
C        -7.05720775414776   -4.84421578879281    2.31242878334642
H        -6.54080487523845   -4.20469585973775    3.01365523124556
C        -8.11026595076808   -5.65050538590732    2.76045579629576
H        -8.40262032475357   -5.63121800526611    3.79882858925786
C        -8.75505063555096   -6.46310746522722    1.86963943942707
H        -9.56581896562646   -7.09554115505516    2.20608665710164
C        -8.39969080168577   -6.50595102182172    0.50412927916915
C        -9.11436779878574   -7.40798400669993   -0.32548997842696
H        -9.84515667258926   -8.03054420059234    0.20594550912708
C        -9.78516404165799   -8.64097037995454   -2.20336579530858
H       -10.55411676581165   -8.97430664498517   -1.48732579563748
C        -8.87482804322450   -9.82972357327283   -2.52436920602683
H        -8.55334062519724  -10.30399943433689   -1.59992140197303
H        -7.98957940838678   -9.49562681610859   -3.05708628533435
H        -9.41067758596856  -10.55662383447713   -3.12993139398457
C       -10.48659530560110   -8.10255126360968   -3.42575738936721
C       -11.85149296466403   -7.84511633379559   -3.37913406946513
H       -12.41230508149035   -8.06053090404812   -2.48102349473857
C       -12.51436882885461   -7.31651347065513   -4.47113292097222
H       -13.57644942940640   -7.12890760450047   -4.42900988719888
C       -11.79293533545112   -7.02488060829786   -5.61470735987110
C       -10.43838424031272   -7.29285186153962   -5.69506889006387
H        -9.89110611629588   -7.08237909850466   -6.60152729760115
C        -9.79386660731486   -7.84229260563778   -4.60199577403156
H        -8.74899581849644   -8.08735900982966   -4.68434009066014
C        -6.17379096213820   -7.60079385747842   -4.75743437793711
C        -5.34643342647849   -8.62864958157258   -5.27963339700259
H        -5.06102851114530   -9.41869975504090   -4.60126008496603
C        -4.92487009323842   -8.62635833417655   -6.58034046738141
H        -4.29669481264656   -9.42660111048964   -6.94418838863269
C        -5.29965980203535   -7.59449598745536   -7.44895738189998
H        -4.96302008100165   -7.60086442978704   -8.47400139223616
C        -6.08859600550499   -6.58071330690432   -6.98058723772793
H        -6.37882486781676   -5.77442777572416   -7.64102082603529
C        -6.54844525010331   -6.54687866394702   -5.64636730428338
C        -7.33320326845607   -5.43077984892965   -5.25760865216936
H        -7.46154955166761   -4.67180351625674   -6.03959474252010
C        -8.56871451444043   -3.93839092303855   -3.93617944045577
H        -8.71867642265103   -3.46603768305564   -4.92079795085721
C        -7.69777232823373   -3.01257141747875   -3.08245091644129
H        -6.82587873172790   -2.70192591645848   -3.65361669047284
H        -7.35033142944841   -3.53215055659316   -2.19452347770138
H        -8.26434492691749   -2.13178187252534   -2.79021116150747
C        -9.92528070195866   -4.19000799636539   -3.32585271741439
C       -11.06128866761042   -4.12382211247196   -4.12380363399989
H       -10.97428070191014   -3.85681062886844   -5.16718757603345
C       -12.31368242706342   -4.39171594986205   -3.60361101237017
H       -13.19174673698922   -4.32696528107717   -4.22789760065147
C       -12.42207186306130   -4.75057913503058   -2.27214448174188
C       -11.31048663309156   -4.80092640249108   -1.45085887126911
H       -11.41120204890954   -5.05918497060023   -0.40746498959806
C       -10.06701728509875   -4.50845847242638   -1.98066486134289
H        -9.21140206943273   -4.50964556683492   -1.32748477258639

