107
CSD_code = RANKOG | q = 0 | S = 0 | Stoichiometry = C57H45OP3Ru | MND = 6
Ru       11.64663970818904    4.09547637374581    2.33937707400700
P        11.88451949010512    2.72356173273146    4.22608615721182
P        11.94150954737473    3.94362382338648    0.07175306475784
P        11.69260438313578    6.31005398919688    2.97532361569874
O         8.71457412088531    3.62402933259842    2.04303978149935
C        11.34730563029093    1.01929556789755    3.84933230180029
C        12.18645412518502    0.22886366251246    3.06419338650293
H        13.14219936424666    0.62409375118889    2.74309328587083
C        11.79320252382628   -1.03908363637862    2.68473712899285
H        12.45114596094354   -1.64477220022055    2.07857836486459
C        10.55467903947419   -1.52782788035889    3.07171034433523
H        10.24551749050322   -2.51877568764742    2.77177267373081
C         9.71188127673215   -0.74125500883546    3.83825042484389
H         8.74314541993575   -1.11637189974374    4.13593310074144
C        10.10199142092169    0.52844687598684    4.22744682065699
H         9.43762071488750    1.13507958468182    4.82684509463085
C        13.56646091049202    2.46384937388192    4.86979154741604
C        13.98568973271502    1.27889419028782    5.46602065380569
H        13.30961377279808    0.43723746723967    5.53310187374562
C        15.27206974020745    1.17970878078892    5.96473626953075
H        15.59866780605801    0.25633854291899    6.42147907511818
C        16.14116287812771    2.25565869689943    5.88028203102878
H        17.14549101466115    2.16854939455983    6.26854427058545
C        15.72450412830028    3.43936335884796    5.29393055755661
H        16.40006000942885    4.27949842203356    5.22365625512180
C        14.44234426625600    3.53969785726279    4.79013294755159
H        14.10475647845642    4.45698716828176    4.31933752044992
C        10.95730356907249    3.03666143094986    5.77263089695455
C        11.47708725413321    2.81650838721976    7.04206979166361
H        12.48526109828485    2.44719899407861    7.16104374163502
C        10.70529799756178    3.07743972249929    8.16112152784119
H        11.11791676791650    2.90661516974300    9.14518849865148
C         9.41248211163633    3.55427059911478    8.02658169990272
H         8.81453458346278    3.75442113326895    8.90379074048963
C         8.88937137426941    3.78157364138905    6.76348119441860
H         7.88325622394195    4.15985196191541    6.65205726435750
C         9.66152719450490    3.53173768376852    5.64526783509376
H         9.27077416215088    3.73114191733533    4.65362160960687
C        11.72166964126152    2.28418147735264   -0.66048057208396
C        10.96507686971896    1.37814983255200    0.07719717270266
H        10.56038563929024    1.68486730784297    1.04122501077438
C        10.73600790838136    0.10247692190416   -0.39902833003486
H        10.14360886009507   -0.58977708035967    0.18148624588689
C        11.27616384142189   -0.28537497699552   -1.61497672733594
H        11.11134282086266   -1.28676565092708   -1.98531352836185
C        12.02676577291769    0.61192443261327   -2.35649570560689
H        12.44343636341917    0.31170347695219   -3.30752530753563
C        12.24340532751105    1.89675252250365   -1.89025737516797
H        12.81312996419152    2.59960640141422   -2.48272505197745
C        10.48061221037776    4.75427629375142   -0.77413286731565
C        10.09419877993832    6.00302768223483   -0.29675831078154
H        10.66164664848132    6.45096982972611    0.51533446618252
C         9.01261312501665    6.67167344353827   -0.83435943099776
H         8.73181916759913    7.64205146799697   -0.44862851024254
C         8.28459338315957    6.08615953293921   -1.85775360335589
H         7.42866761236959    6.59599802170462   -2.27548961561169
C         8.65483658062327    4.84187384015703   -2.33702922837298
H         8.08766794341860    4.37896137015106   -3.13207952823921
C         9.74701496417545    4.17811608969871   -1.80372930299114
H        10.01969298935403    3.20748835835890   -2.19229732817097
C        13.27664848467938    4.70231475646091   -0.90977874094826
C        13.11248208375069    5.94631782199199   -1.51164964678765
H        12.18281370948444    6.48561072754312   -1.40668075484718
C        14.13898634113728    6.50517038108478   -2.25084625543936
H        13.99670700463680    7.47204489441622   -2.71194740857880
C        15.33869254632149    5.83194382303471   -2.40272800518318
H        16.13740484558242    6.26979400343750   -2.98391738750726
C        15.50888900416699    4.59313646267940   -1.80695718544790
H        16.44141639435891    4.05939968516191   -1.92179558361273
C        14.48825545818196    4.03083015346860   -1.06413331307049
H        14.63170607517761    3.07164709744451   -0.58573196547345
C        12.40557133126342    6.57068675893004    4.64670338286182
C        11.55381391075407    6.27603472340504    5.70958219152294
H        10.53268905130754    5.98520006610308    5.49747473430467
C        12.00392380271744    6.35475790878812    7.01157674906068
H        11.33519494107921    6.11967296727791    7.82659998884391
C        13.31469674547462    6.72761910698005    7.26693260241915
H        13.67362705702411    6.78127514483193    8.28409312742025
C        14.16137218307137    7.03668246606285    6.21671944055641
H        15.18004037598948    7.33838065446549    6.41423151538745
C        13.71384073381079    6.96096303431722    4.90846566603602
H        14.38508914262928    7.20721802847496    4.09670589229045
C        12.91940458843427    7.17016413092499    1.92784556550638
C        12.72355070448812    8.39746436473561    1.30691066231804
H        11.78940388866331    8.92794192907153    1.42893565199457
C        13.72673508882458    8.93844167946744    0.52052323835972
H        13.56819397381867    9.89212760953330    0.03779117319693
C        14.92543999776004    8.26746828337544    0.35060924601044
H        15.70624971785750    8.69977602744743   -0.25733585084609
C        15.11726520567377    7.03082503967086    0.94692703237938
H        16.04048883515244    6.49064616368383    0.79822740509480
C        14.11445401311231    6.47988180889009    1.71869112028592
H        14.24743150030186    5.49146774176394    2.15798658279662
C        10.33350630703512    7.52029200215146    3.11484233628735
C         9.05166198918063    7.19203861245769    2.69469398036537
H         8.86532044849577    6.21434726040471    2.27218902631779
C         8.02312204411833    8.11084596204034    2.81408060425707
H         7.02882346574162    7.84894051657397    2.48307407868035
C         8.26974203453370    9.35963518442680    3.35801654253423
H         7.46821780402836   10.07775639796157    3.45073339064525
C         9.54583577270749    9.68794272780697    3.79089678695645
H         9.73712546420562   10.66004355305877    4.22201303776544
C        10.57465217194032    8.77334303927960    3.67522885990884
H        11.56929614764914    9.02321299825326    4.02065330595770
C        14.30509027752334    2.63244929119898    1.71854629268907
C        13.13826565172144    2.99509714718143    1.51839000449530
C         9.82088197912683    3.91006699211565    2.23228788915072

