77
CSD_code = RANLUN | q = 0 | S = 0 | Stoichiometry = C30H44N2Zn | MND = 3
Zn        7.79909564762321    1.79760709199250   10.10965249917220
N         8.38594573135345    3.22833250087875    8.84382975162394
N         6.90050736083604    3.10538691171937   11.32753926640609
C         8.15954824315040    4.51737890852359    8.99269370767990
C         7.45323032999579    5.06039689542111   10.06387795473767
H         7.34501305715688    6.13475861712131   10.05214864145386
C         6.86455215642116    4.41044621465987   11.14586770953631
C         8.68525559957051    5.46951177330355    7.94831337443216
H         9.75782613837808    5.33054356058791    7.82323559277719
H         8.48972458906175    6.50251666122927    8.22041830593468
H         8.21664425465938    5.26285622155739    6.98710244472909
C         6.14829123151082    5.26085556386929   12.16457346862484
H         5.11647972240965    4.92889178203434   12.26870980523845
H         6.15681473063276    6.30911370369243   11.88068413837108
H         6.62395798825269    5.15427287377199   13.13855646648347
C         8.06638370267508   -0.19038884579588   10.05577560895281
H         8.78185435571184   -0.54116263763629   10.79374275097397
H         8.43869506621606   -0.50990976887971    9.08667627351227
H         7.14983324888759   -0.74281743325911   10.23999090342435
C         9.09588728492590    2.75708332467500    7.71801574494507
C         8.39693776043994    2.41219406334224    6.55317120697534
C         6.89912038834092    2.60615916287386    6.46819329103887
H         6.58699314514662    3.26810799226454    7.28257000851999
C         6.47106730838471    3.24942672172329    5.14788368959050
H         7.05170445121143    4.14834543409235    4.94965228776505
H         5.41869023350970    3.52256014202360    5.19244375998418
H         6.60519488948318    2.56542520696462    4.31386907149949
C         6.19388625885820    1.26177588196876    6.66555992609526
H         6.50133060900210    0.55266620821675    5.90003403453241
H         5.11460276644536    1.38838659080387    6.61037015499052
H         6.44567178978557    0.84718111282832    7.64203360472645
C         9.09592521245194    1.84857515148932    5.49651486206646
H         8.56962735839639    1.56208341903300    4.59876561496747
C        10.46023387412550    1.64320313888707    5.57545156770869
H        10.99019828503675    1.20282131267206    4.74360343398725
C        11.14373461358432    1.99945880206150    6.72181301192160
H        12.20906294128790    1.83274948357337    6.77626700524244
C        10.48043301593826    2.56152402255146    7.80257648385151
C        11.23966251248744    2.92300896041953    9.05966728360278
H        10.56145694752685    3.45563847202313    9.73530745208267
C        11.70740807033605    1.65175743856897    9.77226462186359
H        10.85242191298582    1.02137771078039   10.01147837615872
H        12.22283253572155    1.90438687620030   10.69668722261831
H        12.38706996363332    1.08440307399349    9.14058741289747
C        12.42762552428728    3.84025359176441    8.76237577070142
H        13.18220878826013    3.32651374719924    8.17222912564240
H        12.88839009858553    4.16577372339672    9.69281052210968
H        12.10725158327995    4.72254106652999    8.21162577163063
C         6.27641963399142    2.52862265960556   12.45552772830773
C         4.95189871745506    2.08140348734696   12.36141132091499
C         4.15030634657345    2.29466949533962   11.09641941331228
H         4.70635001460378    2.97436309678140   10.44193356290227
C         2.78728197156333    2.92711045266149   11.38536514955951
H         2.14192604111736    2.24049795710986   11.92721157385524
H         2.29371641956746    3.18940592560724   10.45177136856733
H         2.89858566575044    3.83146264975908   11.98055448607401
C         3.97970279592938    0.96730304281311   10.35398285835054
H         4.95473811240549    0.55683219753952   10.09406798324299
H         3.41154480021111    1.11624781284103    9.43805436566771
H         3.45523568771216    0.24424251541750   10.97462685842929
C         4.39383772915127    1.41249449569538   13.44059268887289
H         3.37928003501742    1.04880611698088   13.37776119919396
C         5.11912594339132    1.19933400567567   14.59696095150443
H         4.67198742846891    0.67254556308946   15.42719551522287
C         6.41773721260881    1.66217578533021   14.68912195287816
H         6.97659068902925    1.49146143493122   15.59673457543810
C         7.01142514951549    2.33700295053569   13.63305043727908
C         8.44008471611673    2.82265329168298   13.73962124636402
H         8.64220208739346    3.49702197542567   12.90082068728022
C         9.40169016571151    1.63730870746774   13.62626848270656
H         9.21454561873076    0.91468108638854   14.41745748134599
H        10.43271657931636    1.97707345550985   13.70098937480868
H         9.26830661728432    1.14048755426111   12.66556984456977
C         8.68994466959885    3.59522458587773   15.03631218794270
H         7.94662118602108    4.37901987576807   15.16893168877476
H         9.67501476805507    4.05670237748958   15.00956473871560
H         8.64979991974641    2.93767301735220   15.90080929414029

