97
CSD_code = RANLUO | q = 0 | S = 0 | Stoichiometry = C36H55N2NiP3 | MND = 4
Ni        8.57627976017010    9.67984649539288    3.31224520839930
P        10.18663350397186    8.03789725405937    3.22671045531750
P         8.31115045098379    9.77274243936067    1.01877759612879
P         9.00290944567982   11.65227767506676    4.39641960203781
N         7.12568512391574    9.10298860717451    4.19362109569007
C         7.40552269829089   12.34181165126480    4.97325551228338
N         6.58164928131890    9.32148291768335    5.15107335975276
C        11.99375534642380    8.19084301934907    3.82285361670447
C        10.49189611477884    7.91563186186681    1.39144058456987
H        11.32530703389505    8.59214996600095    1.20029482909584
H        10.82285705633759    6.90304932319821    1.14142997260360
C         9.67028762974354   10.26204756445265    6.66766550198136
H         9.07429392926602    9.49280866322653    6.19210783315202
C         9.32317776231170    8.30309971616863    0.48011863417066
H         8.61618877136191    7.47427709969384    0.44309770812465
H         9.69798265121158    8.46532473306104   -0.53497642287432
C         9.57210620993262    6.29100508135745    3.67649487610195
C         9.85412332513820   11.47231935923155    6.00708037148073
C         8.34556758607467    6.04860730917121    2.79377310809452
H         7.75005790939509    5.22695560015212    3.19050548410011
H         8.63533757252049    5.78932024123734    1.77774901384169
H         7.72337164174126    6.94345485287913    2.77964101042136
C         9.77540128611978   13.19752323642308    3.77621160868976
C         9.18649299210339   11.20043925950256   -1.40394412636089
H         9.84124528415546   11.99935144787155   -1.75383263399855
H         8.20354202330303   11.37139509076121   -1.83481953774510
H         9.58098729248937   10.25999213196830   -1.78397734922926
C         7.24750084450645   13.00274396940052    6.18487772385988
H         8.08749383320972   13.11658411148603    6.85485661096626
C         6.68060565726729    9.37096868098027    0.11324245063072
C         9.14837940322413   11.22913509264046    0.12042726405084
C         9.02596557487091   14.33206246357894    3.48153568964815
H         7.96079171688450   14.33872337810072    3.66233103709708
C        12.07779197384188    7.85007574456118    5.31119481711550
H        13.03198529929271    8.19088395445620    5.71422147207776
H        12.01308667863209    6.77949353251622    5.48365606864787
H        11.28562102047264    8.35359880544267    5.86132042407697
C        13.04421868185694    7.38378097199289    3.05938665937903
H        14.01955621423124    7.57271457585042    3.50901989649362
H        13.10524054867418    7.67682846449472    2.01465954898396
H        12.85945799488448    6.31660450159906    3.10789022907431
C        11.01189875326680   11.02822759391219    8.49656798783573
H        11.46407726149921   10.85899148838049    9.46300405127784
C        11.14425393876127   13.21741168496052    3.51960614060859
H        11.74384338787202   12.34722820972616    3.74143054880765
C        10.62506159195110   12.46180208278779    6.60698389835171
H        10.77538053852785   13.41058435853630    6.11149474023077
C        10.23954536133420   10.04088814937801    7.90737740910702
H        10.08485628594334    9.09869660524735    8.41340187662530
C         6.30893340646217   12.19695367817044    4.12960677813192
H         6.43662798957750   11.66170414307732    3.19476366332039
C        10.54852085160112    5.13526450314916    3.48029256176973
H        10.01333170500355    4.19553632987079    3.62096170127204
H        11.35889672712398    5.16052576174701    4.20329167500441
H        10.96806926438632    5.12703665150750    2.47615370546275
C         6.81008497978832    8.76272902670640   -1.28328724264209
H         5.80986182398550    8.60003416514909   -1.68569092897543
H         7.31376622187688    7.79994762942284   -1.26327739388725
H         7.34061587137191    9.41438067319076   -1.96853830564400
C         8.47963126951789   12.52052510926660    0.59700471280705
H         9.12673275448289   13.37595579000088    0.40351637244106
H         8.30438105484505   12.47206539180875    1.67143335114503
H         7.53207677922881   12.70162838732716    0.10008056156491
C        11.20319190323634   12.23460200726167    7.84364677323558
H        11.80318371084949   13.00790306808858    8.30232742103798
C         9.08860420615384    6.31932353072305    5.12900066032256
H         8.56459383676775    5.39323842349506    5.36431048682164
H         8.39403064581368    7.14485944795449    5.27454393612361
H         9.90659513106857    6.42917721424448    5.83325099902338
C        12.32630384596280    9.67816930248395    3.68491666968197
H        13.29151928300242    9.89871554633076    4.14061384242345
H        11.56242551804269   10.26392655783029    4.19781505620948
H        12.36905019299169    9.98530707963498    2.64210413063354
C         6.01006362213253   13.50995005620688    6.53911266042784
H         5.89203567675874   14.01811268720673    7.48564951787204
C        10.99562553390272   15.47116861649632    2.71370480129730
H        11.46752957381846   16.35228220304517    2.30377606063272
C        10.58267156611035   11.22911581547937    0.65470071933419
H        11.06030750176172   12.19217041076795    0.47585861355646
H        11.18282037597397   10.46158594432447    0.17039710326241
H        10.56821259291102   11.05539072894165    1.73192488398523
C         5.82408099089952   10.63548912947304    0.03407535294534
H         4.79413056995610   10.37169310477449   -0.20634048789891
H         6.17962142088811   11.31010662724647   -0.73977844742189
H         5.82227887037155   11.15839966154350    0.98876307653106
C         9.63310364597531   15.45925199008508    2.95747171326697
H         9.03651439056014   16.33324089563882    2.73838762304717
C        11.74979037267326   14.34474979275079    2.99790550625353
H        12.81443274680102   14.34411650188339    2.81128528408961
C         4.92467108974903   13.36773864765579    5.69072442239604
H         3.96077339148579   13.76435987329095    5.97495194186351
C         5.07547151219300   12.70966577192089    4.48132808003790
H         4.23043255361199   12.59058386900351    3.81843896279233
C         5.94043585505816    8.37153935125283    1.00844156552122
H         4.92943816625988    8.21031241413468    0.63574643998398
H         5.87062866686466    8.75203715004338    2.02737784226885
H         6.44167809688548    7.40705832060271    1.03005211920509

