73
CSD_code = RANMID | q = 0 | S = 0 | Stoichiometry = C33H36N3Rh | MND = 6
Rh        6.12659717173319   12.25216196302255   12.36963913267519
N         5.50570231379805   10.46030230168235   11.16045000790761
N         5.22710729420603   13.27947547286541   10.58023014800651
N         7.85725900247911   12.13095683050808   10.93901044291062
C         4.32730762307405   10.95613144065704   10.43650959063292
H         3.96789138281182   10.20956299484824    9.70846790418809
H         3.54177546756707   11.11783731607322   11.18063108774225
C         4.58393083424777   12.28246666244462    9.70619989542174
H         3.61945188343620   12.65741156282549    9.34359346928319
H         5.20194344572440   12.11123571870712    8.82040525764398
C         6.39971624219779   13.89812931762124    9.94738375914043
H         6.13096912455254   14.35841196427175    8.98169165707695
H         6.74586927889093   14.68736602896757   10.62135246169596
C         7.55431604085268   12.91012129202719    9.72526567794676
H         8.43290156747763   13.48656299493949    9.41225309364571
H         7.31747649018691   12.23378405570656    8.89915718217250
C         7.94173871059585   10.68977169089317   10.66736993737210
H         8.69200611735250   10.47769738813907    9.88706868267474
H         8.26421567075772   10.21130275761797   11.59670864973825
C         6.59789150234113   10.07592434794884   10.24845599553146
H         6.71698805081499    8.98601618082106   10.23367741287436
H         6.35038356121598   10.37377784012663    9.22573766508008
C         5.11728108430800    9.32253092194779   11.99556533582847
H         4.71242817461851    8.50212687262873   11.38711729015411
H         4.36590724059595    9.64169887883245   12.71671835826057
H         5.98274223285905    8.96962070383862   12.55372491437341
C         4.26964497985042   14.32179133328221   10.95257069489650
H         4.73458531482401   15.00145354232496   11.66560016872179
H         3.41039327858058   13.86500706884335   11.44057287112739
H         3.93496497399148   14.88835546429648   10.07259058326582
C         9.11481472686222   12.58622948383298   11.53425915732050
H         9.28370888319384   12.06108944216454   12.47371750111492
H         9.04599358005409   13.64960698441357   11.75695290141317
H         9.96266985239537   12.40661709450652   10.85884676160978
C         4.50549840848636   12.26146524159216   13.43158996385957
C         3.40652010949703   12.20177301795997   13.93895128881842
C         2.12140485819862   12.12874109866145   14.52719046766587
C         1.72803857860558   10.98523597268742   15.22660016231683
H         2.42623370493658   10.16641849926950   15.33180215444573
C         0.46695726046346   10.90896603170937   15.78356024507086
H         0.17213372113241   10.02120023851528   16.32598045435902
C        -0.42158767502115   11.96468759854974   15.65207334181299
H        -1.40770277205556   11.90153388684563   16.08932856206178
C        -0.03859758537289   13.10357722316007   14.96133343329175
H        -0.72841251771127   13.93040586493282   14.86125677804230
C         1.22062031744613   13.18883294395554   14.40107325938863
H         1.52430071429808   14.07902549915626   13.86722716980318
C         6.68865890600304   13.91165888080840   13.19761650652481
C         7.06363664198478   15.01783309442310   13.52127190214478
C         7.51151085833663   16.30734288160424   13.89460603197205
C         6.69969180280513   17.42592090713428   13.69158748383629
H         5.71319460997359   17.29396659604578   13.26788225305239
C         7.14823042312170   18.68517687562480   14.03759727997109
H         6.51139840470114   19.54474148070151   13.87919144912466
C         8.40935811417253   18.85164454865493   14.58756415369844
H         8.75719122123001   19.83848032648373   14.85732044764189
C         9.22067348663691   17.74678141611057   14.79402017655241
H        10.20333017019344   17.87398527521828   15.22696749858726
C         8.78060147133003   16.48383800620849   14.45097509499203
H         9.40771179842601   15.61856686859566   14.61415987590102
C         7.02565780239473   11.24157386886411   13.75734813555762
C         7.66510511065235   10.50438528294934   14.47584240964351
C         8.39408054658047    9.64825270825926   15.33541663441263
C         8.22151422622882    9.72350883976945   16.71947182934102
H         7.52710074144540   10.44745840909318   17.11988984949293
C         8.93039881344233    8.88415578995824   17.55511017717853
H         8.79142065317358    8.94910273891207   18.62527677003715
C         9.81971591004722    7.95870179366767   17.03037872583635
H        10.37289038274306    7.30343306573189   17.68782616680877
C         9.99743509704311    7.87739436430026   15.65881836664255
H        10.69080728726763    7.15707297135887   15.24605937965187
C         9.29230569286450    8.71337049940360   14.81529455607173
H         9.43369960585622    8.64795347945467   13.74364391497536

