99
CSD_code = RANMUR | q = 0 | S = 0 | Stoichiometry = C37H46B10N4OZn | MND = 5
Zn        6.39487810487118   11.37756137326317   12.32057462175767
N         5.70274256254887   12.66967621534583   10.92765599454379
N         8.14809930097893   11.25468280199510   11.28346699182631
N         7.21287646137470   10.24797628708109   13.81711163805648
N         4.75354897557694   11.67584253525147   13.46268492919744
O         5.62132003955781    9.49602163901038   11.29291551987131
H         5.99477055100027    8.75587600483208   11.78423084352114
C         4.47156472722828   13.23573557194453   10.93346608685941
C         4.26148663574334   13.96310091032235    9.71315674130046
H         3.36572769521942   14.49937932613159    9.46313596205675
C         5.38839179215546   13.82110909602333    8.97587617311126
H         5.59185803024538   14.21028542669126    7.99689096886820
C         6.29144485946401   13.01514025012718    9.75385011064155
C         7.56807145989421   12.63123014838906    9.34143513530762
C         8.42955612816676   11.81882693950566   10.08046838408294
C         9.76766137503668   11.47175614789300    9.68057255583437
H        10.25202651822506   11.79842967245679    8.78082885997088
C        10.27385115152357   10.68502258336992   10.65960293996501
H        11.24664412962429   10.23477745761552   10.71519277009039
C         9.24910251246991   10.55679579126197   11.65736799230219
C         9.39168119467150    9.81900174757666   12.82494083663596
H        10.33925680439076    9.31792429421396   12.96335353603650
C         8.44905513575553    9.68503532251549   13.82705532102414
C         8.64404146404234    8.93077718815265   15.04722400333825
C         7.49389726422060    9.05648686737857   15.76487208104708
C         6.61162553305235    9.89572864587248   14.97966319476916
C         5.34136968295539   10.28577932591392   15.37070318214146
H         4.98901270111381    9.91469988995728   16.32126421138104
C         4.48742161466130   11.12035319248865   14.66881241994049
C         3.17417951430556   11.52689319138688   15.12842585198827
C         2.66645785264158   12.34214531595883   14.16445838175659
C         3.66994639246997   12.41821049286647   13.12270808238120
C         3.53178854165849   13.13600699029625   11.95016321159773
H         2.60316916649605   13.66830786809018   11.79943407762124
C         5.83068001548892    9.27658483487675    9.91073658628803
H         5.42689908919017   10.14179662980866    9.39003507215999
H         5.30414000201442    8.37592303987617    9.58029583974958
H         6.89392579908064    9.18666146562208    9.67381127105407
C         9.89037728624557    8.19317472357561   15.39243787512645
H         9.77959302195260    7.66899537698907   16.33812256250472
H        10.72808584204670    8.88509428951945   15.47979657737002
H        10.13400856690221    7.46559754516497   14.61824064920003
C         7.18016532632763    8.51063427404740   17.11802210176270
H         7.79113511318220    7.62548159082833   17.30783999328233
H         6.13260221269321    8.20392621126326   17.16162825282540
C         7.45260338651024    9.55320826249856   18.20504729651235
H         8.50192730092900    9.83902337093341   18.19644565153452
H         7.20861227929268    9.15382812048247   19.18723748138342
H         6.85639867734802   10.44629156199861   18.03270001883959
C         2.56472402106336   11.14245738811278   16.43557417568778
H         2.80137494630829   10.10086122329796   16.66421271706128
H         1.47780751740284   11.22708001970734   16.37299531690007
C         3.07606382501974   12.04203487605182   17.56360278172128
H         4.15868434944712   11.97493834203055   17.64229083912413
H         2.63745553667181   11.74858522905919   18.51507793501853
H         2.81426329720476   13.07877522358437   17.36488944320007
C         1.35774632327227   13.05089141961779   14.12744797747527
H         0.76966227753873   12.82329129576316   15.01272195139870
H         0.78770115934704   12.75628918696765   13.24644882823611
H         1.51137434844627   14.12917269096439   14.08487914035129
C         8.04741250016813   13.11791998435572    8.03166041797788
C         8.33201228200514   12.22289852491433    7.00425516976008
H         8.17514055561375   11.16621482461754    7.16522222398352
C         8.79824708571538   12.67359156372045    5.78544148328758
H         9.00715555461755   11.96259653551610    5.00126059313186
C         9.00965264291474   14.02939107570706    5.55877394136041
C         8.69315671671064   14.92318585096166    6.57428742636257
H         8.80710048372478   15.98631718819379    6.41287363234959
C         8.22152737979258   14.47672291928388    7.79509093065293
H         7.99594087385039   15.18446358079258    8.57947964283340
C         9.54447573271425   14.51496211980435    4.23560008594165
H         9.34316561404134   15.58748558621856    4.15436663911796
H         8.97769849404239   14.02306800829421    3.43894451035167
C        11.02451670901857   14.24876584470469    3.96717867891477
C        12.13958615661331   15.13813645152005    4.69954260676286
C        11.70976496105623   16.17457564976436    5.71323019577315
H        10.99156706575269   16.88072466757481    5.29526612978254
H        12.57619632933250   16.74765708604970    6.03989086711516
H        11.26399940515895   15.71450067381048    6.59457391787743
B        11.84287224015329   15.45624799208049    3.03733914099738
H        11.22514040864986   16.42759248847878    2.79494269001319
B        13.47749066634900   15.46003638272027    3.66521662996867
H        14.02401606447426   16.49238354981789    3.80585146949852
B        13.58628825707540   14.25356281094944    4.94845955380744
H        14.20661885259893   14.50298542309797    5.91636139355886
B        12.02421065265219   13.47735463901243    5.13665605108879
H        11.54237017221782   13.24515175110103    6.18228204151086
B        11.61701311284348   12.67368616572650    3.63145249702744
H        10.85167143747986   11.78155820066358    3.63656448232992
B        11.50894687783465   13.88115811016656    2.35201975800357
H        10.65328077303524   13.78442704049401    1.54919996755451
B        13.10637676416979   14.63413275776180    2.13623496861263
H        13.46956588982959   15.04340955825622    1.09528639165680
B        14.20527542274841   13.87834191444971    3.32715396974070
H        15.35766461525371   13.76327767963182    3.12088401326286
B        13.28713547918769   12.64679433929302    4.24335300737362
H        13.78376477931417   11.66974055835269    4.67008858310509
B        12.97249467924616   12.89111392779192    2.50136027974458
H        13.23904891778182   12.06799187052775    1.70415207122339

