94
CSD_code = RANMAX | q = 0 | S = 0 | Stoichiometry = C45H37AuBN6PS3 | MND = 2
Au        2.38035525902470    5.47299995289875   10.58587171257689
S        -0.89111489333893    7.78646699088852   13.52176648878285
S         2.22866917882077    6.87605435583742    8.71519084852974
S         2.25472703064679   10.81280125152860    9.30870186468550
P         2.38075064548946    4.32348177956874   12.54462412358626
N        -0.23157123419341   10.31387638387922   14.24171782211296
N         0.94160713544104    9.49337808649853   12.56682283645449
N         4.60893054571858    9.66357708009386    9.92138258646740
N         0.61067143252455    8.45508988705963   10.30575708891297
C         3.25447863659642    9.75810515516087   10.11040838535851
C         3.71295969099235    7.27364976123668   15.77367043996154
H         4.03908152563659    8.00442722202733   16.49883605367479
C         5.36966602324548   10.31330906892113    8.93863522402662
C         5.11103646064454    8.77671760875453   10.84935942639535
H         6.15127449587171    8.52758097160295   10.88429289668711
C         0.06883379604147    9.10720127237944    5.93653242601861
H         0.08569624642444   10.11396114742958    6.32654221810227
C         2.36262557405614    7.01687258354316   15.60714014161870
H         1.63344794885540    7.55086167650868   16.19801766090232
C         4.90741618926226   10.39820311962366    7.63040568838225
H         3.95692881964804    9.96075189425527    7.37086931234271
C        -2.95149920976015   10.83330304836474   17.37028351359970
H        -3.65301603640163   10.97360016955472   18.17896874245737
C         3.47240776897931    2.88410822433847   12.69927607299912
C         0.05890045309316    6.73005974515217    6.34370884046349
H         0.04899472309010    5.90560825148413    7.03921622752040
C         2.87487961102951    5.40393877063158   13.91052281865415
C        -1.79824213890143   11.69366406193797   15.44976412056661
H        -1.61397561773394   12.49681442987877   14.75182024700200
N         0.02070534121130    8.29906637947770    8.20359938373155
N         2.91822805625455    8.92037187577905   11.12529578650406
C         4.64973783215763    6.59943975674593   15.00474582785500
H         5.70317109881803    6.80440140765132   15.12821714369558
C         5.67464033213908   11.03833540512500    6.67545309859746
H         5.31234421246512   11.10496978860304    5.66050290538788
C         6.60439978655877   10.85685303258292    9.27803219388579
H         6.95581403847297   10.79580173525669   10.29797309754212
C        -1.41071272637024    9.43126285373724   16.17398292743842
H        -0.91762270867301    8.48219448581900   16.04309648239747
C        -0.88065545792639    9.12757408913384    8.82168712083713
H        -1.69446471422837    9.57206409048625    8.28831754379043
C         4.23417105599439    5.67551094806046   14.06509426894942
H         4.95620011534386    5.15873713004257   13.44417778992301
C         1.93607601608366    6.08385552639347   14.67821565558669
H         0.88040198988619    5.90223824264175   14.53755873630881
C         0.09778382035601    7.57035906063955    4.09493817187037
H         0.11808298855918    7.38824878210080    3.03082387502624
C         7.36689668283377   11.48686556754657    8.31251473080212
H         8.32411131876015   11.91013288499465    8.58011434546383
C         4.06956223147431    8.31981924989619   11.57192265511488
H         4.04690835988842    7.61936016200708   12.38154908796974
C         6.90265741151169   11.58352073373345    7.01139188725673
H         7.49830476188277   12.08212317439094    6.26125684923471
C         0.05364891850671    8.03401745663003    6.81779321432417
C         3.93657485827522    2.43150564846938   13.93162204424141
H         3.66814240234441    2.96161460819637   14.83569025454519
C        -2.69066370504036   11.87002765635092   16.48978387749691
H        -3.19031340624659   12.82037905791191   16.60743967455405
C         1.34345396385423   10.78670909596597   12.77572905180091
H         2.09544636574076   11.24351526578601   12.16696595451772
C        -1.82518073858189    2.96984793616442   13.73519353489962
H        -2.82426185931092    2.67780060017598   14.02266068596424
C        -2.31216877190087    9.61644315977981   17.20536801100510
H        -2.51178914689258    8.80346737461144   17.88754031110927
C         0.53725149832982    2.53397601119802   13.71740626643437
H         1.37589922873263    1.90480664540061   13.98139786105923
C         0.74045771398734    3.71928388883778   13.01861603929403
C        -1.15073877512403   10.47140041498991   15.28781398670570
C         3.82407850262990    2.21158431190949   11.53399128553358
H         3.46301840239546    2.58325746822172   10.58290976743677
C        -1.62356511134545    4.14616388203053   13.03139425735362
H        -2.45503952363718    4.78453334497382   12.77673147989224
B         1.51340633314673    8.49720639000497   11.56654594370849
H         1.57829986810571    7.41442761591477   12.07536281179689
C         0.91974689830546    7.89824375359935    9.12972280530074
C         4.74412090176271    1.31076933313072   13.98895894804572
H         5.10588151191592    0.95854559320716   14.94378860412519
C        -0.74838217759683    2.16367467278164   14.06911517986552
H        -0.90907255504351    1.24312711102140   14.61125672645742
C         0.08417257712485    6.50469233382931    4.97921732921849
H         0.09130557619024    5.49154168826545    4.60639297900277
C         0.08990515355639    8.86976543603962    4.57434183470410
H         0.10708251908804    9.70214420742385    3.88693266844830
C        -0.34480609343235    4.51560294238398   12.66029742682145
H        -0.18201316369489    5.43573508923728   12.11492479344783
C         0.62675033027462   11.30197440153560   13.79400897800876
H         0.67343693475157   12.26268534663226   14.26224955823825
C        -0.51433217754986    9.20845332534074   10.11954583522374
H        -0.96614027165016    9.74829414908306   10.92418991312451
C        -0.03277834019782    9.20412774233819   13.46126162619976
C         4.62951617712032    1.08920288852685   11.59883850891829
H         4.90248128763828    0.56791321909379   10.69355032710463
C         5.08898604093955    0.63927128131500   12.82606604855885
H         5.72061994852924   -0.23490266190534   12.87751620055657

