106
CSD_code = RANNUR | q = 0 | S = 0 | Stoichiometry = C54H44N2O3P2Ru | MND = 6
Ru        9.08658887520488   10.68774070140037   15.04109229782266
P         9.18317560947688   12.97589606918042   14.73470088846793
P         9.00518250331456    8.38679128200767   14.92493403087685
O         8.90370668604468   11.14314597501654   17.98825598988661
O         9.13511899616520   10.49730196896198   12.95125211601866
O        12.39395603645321   10.58008579593868   19.14101505306051
N        11.17026571445073   10.60471651655564   14.69008513792690
N        12.71159012240924   10.86423900943751   17.82214257172278
C         9.03266087721788   10.91946201018963   16.86090810921962
C        12.18534138877988   10.60330937020966   15.54588973855887
C        13.52187937460658   10.78135897970122   15.12184605085234
H        14.28509423355337   10.79632865223977   15.88228370613199
C        13.80776440118735   10.91952735711943   13.79917914738590
H        14.82210985538555   11.05494859128656   13.45305974548983
C        12.75495431553512   10.87363402213375   12.85673514407439
C        12.94078926311243   10.97507438907686   11.47475647373827
H        13.94126608459393   11.09608585509477   11.08756868968675
C        11.85512978353988   10.91843428077654   10.62552331360118
H        12.01021349335631   10.99866003003951    9.55840238948613
C        10.56575129927516   10.75852342746328   11.10299777558367
H         9.72439542074331   10.70878693139691   10.42776160314461
C        10.31404579694571   10.66518076176770   12.47858724053473
C        11.43977269213928   10.72742501483864   13.37250491037983
C        11.91831775190801   10.39032189455748   16.95210693140030
H        11.03389506188232    9.80796694512786   17.21948169003606
C        13.02064654101248   11.52202636315354   19.99430704761167
H        14.10617749464275   11.51064409672585   19.83750112263341
H        12.79551237028396   11.16409326865952   21.00352423056036
C        12.47127259782039   12.91105424575246   19.77584798458264
C        13.31033532946681   14.01192896186623   19.68573768561358
H        14.37750716216489   13.88403114623337   19.80332247370110
C        12.78601639041550   15.27046224937287   19.44348604831270
H        13.44662105916177   16.12283105179872   19.37416719520032
C        11.42158651902708   15.43548389728654   19.27856966904080
H        11.01480255861377   16.41597260092805   19.07983356893734
C        10.57907523284594   14.34000897719704   19.36686855389324
H         9.51395588680793   14.45985585052383   19.23437015515130
C        11.10161678790330   13.08455016146104   19.61759043876470
H        10.44772083553872   12.22704700457347   19.67301019231905
C         8.37650775023389   13.70765374151953   13.26956693385929
C         8.60368592785407   15.03868948810412   12.92609197181350
H         9.29443398136680   15.63620801141709   13.50456356965183
C         7.94980978334594   15.59321656685962   11.84277801470510
H         8.13251935538217   16.62423465204997   11.57568289263831
C         7.06053631537527   14.83109876861096   11.10046497642220
H         6.55403849394446   15.26886110883386   10.25251497677586
C         6.82115764035977   13.51313520085389   11.44899672936878
H         6.12505152344554   12.91977507505973   10.87415865616766
C         7.47201334863811   12.95197531253103   12.53423577041086
H         7.29878465631424   11.92121542490428   12.80988452955139
C        10.88858238124872   13.60402032770871   14.64213247781777
C        11.61432152831330   13.65320401384198   15.83178920412183
H        11.12330377295758   13.40786434942636   16.76587699174375
C        12.94679438906407   14.01580471443148   15.81980306431296
H        13.49548299500815   14.05536226395038   16.74856966075540
C        13.57078718960564   14.31150176339525   14.61772041598635
H        14.61353220553690   14.59282669894553   14.60565666312071
C        12.86260128117318   14.23483784107442   13.42968696535223
H        13.35277005848715   14.44735763216151   12.49070656972520
C        11.52700803124585   13.87382910975083   13.43614399723442
H        10.98067126586320   13.79597032682103   12.50510385447806
C         8.44363493688348   14.05735763878281   16.00803215974730
C         8.95122696248573   15.31222038586559   16.32767647466496
H         9.86703777138818   15.66351591946491   15.87355485149763
C         8.29615783759387   16.10908861407834   17.24950054079463
H         8.69635423016906   17.08229485721988   17.49512543883946
C         7.13426778278203   15.66460360525737   17.85849840908437
H         6.63060932328534   16.28910720881686   18.58191555155665
C         6.62314455328545   14.41670550548484   17.54080122517972
H         5.71875576393113   14.06554569276938   18.01542467593562
C         7.27155247845932   13.61886755502309   16.61626765663321
H         6.88364913320761   12.64082156244155   16.35867294070439
C         8.08604913994295    7.65233432776638   13.52888797932029
C         6.98733441651896    8.33995982558537   13.02751888793885
H         6.74475481340085    9.30878339439691   13.44217280939174
C         6.23385960025866    7.79585354959197   12.00343532923278
H         5.38594192313429    8.33833921056004   11.61107539191099
C         6.56658904325934    6.55774525802971   11.47960037877597
H         5.98136869993571    6.13256506866859   10.67715800971566
C         7.65369492645006    5.86333843906665   11.98502352666954
H         7.91439509816757    4.89629056851198   11.57914565545230
C         8.41133362351227    6.40348905995924   13.00789340638968
H         9.26328029377354    5.85734079976516   13.38881699356906
C         8.28092281180467    7.40458242881368   16.28151864860923
C         7.38148316256593    8.03354430812069   17.13457792385879
H         7.17912926131752    9.08901285760057   16.99299729822143
C         6.76303287181108    7.31759423731705   18.14412004582405
H         6.06885256364381    7.81179046081257   18.80757440181967
C         7.03633379797975    5.96933330483106   18.30407510001052
H         6.55674991205724    5.40919648683183   19.09331771553672
C         7.92584829989434    5.33658501439716   17.45007803362384
H         8.13751838525262    4.28420182781892   17.57312572303298
C         8.54441221894445    6.04740196368901   16.43850194714029
H         9.23989786517610    5.54965421108805   15.77758905066296
C        10.67237260312731    7.68212989030468   14.72711373866214
C        11.43318322085781    7.35030079065750   15.84519764722709
H        10.97296323528802    7.35217594466654   16.82479567436207
C        12.76746874644849    7.01593669171081   15.70482790620049
H        13.35010178934270    6.75750098704374   16.57705065939596
C        13.35902596703525    7.02705664684990   14.45210912018832
H        14.40469148244149    6.77868006677528   14.34604436463945
C        12.60953340700736    7.36012190472041   13.33535691465025
H        13.06875657843128    7.37575375656916   12.35757669636793
C        11.27368931610298    7.68898138312650   13.46962724223122
H        10.69061083842054    7.95767654053509   12.59772658204564
H         7.55402303576410   10.76454214916723   15.02696327540768

