89
CSD_code = RANNOJ | q = 0 | S = 0 | Stoichiometry = C33H52ClIrP2 | MND = 4
Ir        6.72088396769787    8.65564830879776   10.17884021558574
P         7.83742025074241    6.72402122002481   10.88078431970826
P         5.54823376214122   10.59703356925500    9.60054155339238
Cl        5.69806296032725    8.73830690324163   12.24900383976957
C         7.55225458084821    8.58903034369912    8.47527184200771
C         8.08351080035168    8.54321730665111    7.35172001569367
C         8.65217173268520    8.50042064725764    6.11892297961870
C         8.43209703637045    6.83542979426100   12.64684013692134
H         7.48647703981755    6.90021599807981   13.19891693642424
C         9.24720683455440    6.17909603946597    9.76870385345453
H         8.80063339501263    6.28966955575104    8.77358621942640
C         6.75177751806409    5.20572680970071   10.88075324741556
H         7.37209553266012    4.32273888292005   11.06963992387512
C         9.16978320138871    8.15287118473003   12.87920876408973
H        10.17897292296198    8.12826347114622   12.47730635869158
H         9.23274683211741    8.36221843523112   13.94630521197291
H         8.62872127323799    8.97241305964520   12.40361411168231
C         9.22955041659450    5.65241771714774   13.18088065521800
H         9.32564692850125    5.73913303057841   14.26315572400849
H        10.23291016094108    5.63795424650889   12.76140098918867
H         8.74029643821487    4.70586290040434   12.96187646383042
C         9.77356541027702    4.75243643462731    9.88595910550163
H        10.20220075737649    4.55065855550937   10.86263714325857
H        10.55625877527240    4.61152975527083    9.14074173063104
H         8.99809355640625    4.01785443053393    9.68645710569253
C        10.38884213000985    7.18876044692356    9.84516075695218
H        11.03026007593473    7.09317769435176    8.97042026060675
H        10.99941821820792    7.02716778423032   10.73017091556426
H         9.98718776914591    8.20200121306916    9.86253244631462
C         5.66424539254640    5.27734478108959   11.94775614801430
H         4.94109992429893    4.47650390772868   11.79644198580535
H         5.13593745896859    6.22628100976109   11.89553326565080
H         6.07828070891294    5.16976715806448   12.94781865574575
C         6.12389319206785    5.10201452060604    9.49182253820789
H         5.60352801741434    6.03204399735710    9.25308346083655
H         5.40712734821601    4.28278480293130    9.45363660350706
H         6.87963646879393    4.93196940695755    8.72857237441929
C         3.78391388293793   10.58750499348011   10.21013817331487
H         3.91998240068349   10.58869808993118   11.29854485085138
C         6.26542517208964   12.14160264203081   10.36490942618972
H         5.76203778196158   13.01785555851263    9.94181645066889
C         5.58594911459230   11.02844505433067    7.77467643959396
H         6.64406873480290   10.87282955825066    7.53387569146348
C         2.91710878677747   11.77941129346328    9.82433796199672
H         2.00107912813347   11.76827763263796   10.41491043765768
H         2.63335377796644   11.73047799811369    8.77556683883201
H         3.42509900083291   12.72316494671304   10.01007461420832
C         3.10429597632065    9.26726778794901    9.85152772758189
H         2.82013431358591    9.23000044470231    8.80345739091514
H         2.20633042667874    9.13399649928443   10.45353829100912
H         3.77755846599649    8.43359280977076   10.05640876297616
C         7.74858146342683   12.17796106293216   10.00014591824208
H         8.22721000206909   11.24797048546771   10.31445792979360
H         8.24647816214164   13.01010525633457   10.49609508216538
H         7.88906819001899   12.28472054008864    8.92714799669490
C         6.09432912127190   12.16340199092892   11.88039094015010
H         6.68215217610086   12.97411456292784   12.30988901187787
H         6.43393727605541   11.22820468461300   12.31914380395079
H         5.05527046741293   12.31730711383761   12.16292268675278
C         5.21419662391087   12.44100410046564    7.33590042948661
H         4.17773686678718   12.68003321963493    7.55267585348862
H         5.35677675908910   12.51463907662946    6.25783186203515
H         5.84976140647525   13.19005019727983    7.80025776869894
C         4.80377516734349    9.98884678912830    6.97709358704174
H         5.11443012324973   10.00944053129308    5.93358276116240
H         3.73499739878974   10.18516472234873    7.01465853712794
H         5.00278046044264    8.99205654716875    7.37079892320219
C         9.19197361280434    7.24404823820030    5.62660289933568
C         8.63988393250862    6.03116130241764    6.05311951688793
H         7.77043309624620    6.05725900237513    6.69442877019136
C         9.17391623634622    4.82876014587596    5.63898357613828
H         8.73385393283168    3.90000765627499    5.97348780555619
C        10.27032119677562    4.80828519249826    4.79016268093367
H        10.68943090202135    3.86689546508840    4.46661693540416
C        10.82561098756578    6.00256138775175    4.35789160118073
H        11.68286300297189    5.99053897910169    3.69987502880922
C        10.29515897532842    7.20949144683342    4.76855056153710
H        10.74973466873597    8.13624005660805    4.44831105774003
C         8.69906495731441    9.71679328271651    5.32231903288538
C         8.80429062647105   10.96132291825907    5.95231461185809
H         8.92203231252806   10.98864958751830    7.02630251113031
C         8.79052859547616   12.12776323444886    5.21572967601288
H         8.87755448612332   13.08188917683371    5.71590985332640
C         8.67066457357267   12.07918451595495    3.83518243336095
H         8.65812642175699   12.99233295499435    3.25847240818337
C         8.56822025435013   10.85233432920515    3.19816134274266
H         8.47025474658185   10.81065741678786    2.12267108904904
C         8.58299509385683    9.68129787247601    3.92990049204898
H         8.47633997087277    8.72959432394323    3.42891210789127

