65
CSD_code = RANPEB | q = 1 | S = 0 | Stoichiometry = C31H31NNiP(1+) | MND = 7
Ni       12.73591080949038    8.99812596573837    2.87950002766502
P        12.57908831957131   11.14312766865484    2.62885995090326
N        11.93247296478370    8.47798985815290    4.74682865825561
C        12.86947676397338    7.00342089340120    2.65229124352847
C        14.11496099566419    7.58386064035105    2.31139997609707
H        15.05763429556962    7.39884825547704    2.80315930476566
C        13.88763820888566    8.48337396783600    1.25560491686735
H        14.64777548530108    9.03551879740014    0.72173650500073
C        12.54926595409752    8.22036662924174    0.70914294733400
C        11.89639758740374    8.68565240452369   -0.42095914482203
H        12.36543903649275    9.40495700416526   -1.07551608115080
C        10.62687063429604    8.19170774413257   -0.69411746107475
H        10.10758565820405    8.52841174425470   -1.57788727466561
C        10.01943448913699    7.26033898545325    0.13850959873796
H         9.03909710968267    6.88554022348535   -0.11156788534821
C        10.65403023342287    6.79161186349474    1.28029115498731
H        10.17551473860901    6.04697064200351    1.90057928727013
C        11.92480177826297    7.27176605200280    1.57429321573426
C        12.58082959906756    6.21385954166399    3.89418094736838
H        13.34218732510437    5.44662749098990    4.04791265320172
H        11.61216990676450    5.72042750499911    3.81433087786609
C        12.60530528995311    7.19057099273256    5.08158390500289
H        12.13269727118217    6.74535993733077    5.96748082615977
H        13.64700852457355    7.41779679764726    5.32666483219927
C        10.47976605504483    8.26307253344791    4.65902072848488
H        10.23006756014703    7.61959033546323    3.81812514444163
H         9.97765662954352    9.21976699769920    4.52032384363023
H        10.10762344546589    7.80333329720784    5.58173784549327
C        12.17177313620976    9.41723447845652    5.85134565913657
H        11.75485209774071    9.02553846271645    6.78585692379324
H        11.69859979849687   10.37377547602774    5.63104674831849
H        13.23882907824427    9.58324741324829    5.98885428988238
C        12.70641249394630   11.84731553173120    0.95242017319922
C        13.98337539782187   11.92989819203662    0.39816126119812
H        14.83950543443104   11.62528173081622    0.98637369348118
C        14.15484683367745   12.41137261374794   -0.88499272090336
H        15.14610088547446   12.47949438547144   -1.30702239830990
C        13.05314774412352   12.80547489055153   -1.62957062953366
H        13.18611321514629   13.17825440686660   -2.63339882585428
C        11.78352575924957   12.72278777022364   -1.08306599772012
H        10.92570603267525   13.03421986777793   -1.65954765665583
C        11.60462105805504   12.24227520564276    0.20324455817478
H        10.61074142404884   12.18641630556555    0.62189960814820
C        13.86740301046090   12.05878317729031    3.51726837379300
C        14.80455482536963   11.30850710035368    4.22044128910364
H        14.71482027107346   10.22133956542821    4.20215330469493
C        15.83298616112567   11.93540746678519    4.89870831882653
H        16.56238644803221   11.35425579390722    5.44239983352992
C        15.92781858821965   13.31797880186420    4.87009327773362
H        16.72770938777779   13.81255055093871    5.39900425050561
C        15.00894137072417   14.06825714436941    4.15167096322036
H        15.09930269798828   15.14329106797833    4.11959565841308
C        13.98123811563600   13.44466830606990    3.46729287922330
H        13.27787617190347   14.02339413247063    2.88505899160648
C        10.96605657663658   11.73420431558102    3.22253492010448
C         9.85816315452348   11.04575068918695    2.72511374887155
H        10.01808740702541   10.21759890197721    2.04048481090877
C         8.58157123821148   11.41270519279234    3.10652857130602
H         7.72594996303652   10.88565077625641    2.71210037445770
C         8.40485059409638   12.45655411960916    4.00296387632142
H         7.40954133981156   12.74527158161878    4.30282231404396
C         9.50385409093990   13.12123821323510    4.52180577410709
H         9.36389995784914   13.92410329380759    5.22927458801654
C        10.78596420282474   12.76257123483781    4.13820554371275
H        11.63986736769647   13.27763707375671    4.55296310720818

