74
CSD_code = RANTOP | q = 0 | S = 0 | Stoichiometry = C33H33Cl3NOPSZr | MND = 10
Zr        2.37987833586465    2.88479406374396    3.09056203835402
Cl        0.18716803302638    3.63680630326929    3.84569927087823
Cl        3.10728013680830    5.15483581550940    3.06447001246810
Cl        4.57005515315817    2.19920899013440    3.91147416738034
P         0.98913894869636   -1.16502642621789    5.20637670638071
S         2.44073819123934    2.75847616513697    7.84123598836258
N         2.56854818958433    3.54714767244520    5.41819338185908
O         1.79601895731550    1.20439930770919    4.21455712253234
C         1.54235363752178    0.14417082037728    6.24153919659383
H         1.55886072565895    0.06598311280071    7.31371741713031
C         1.87032771471293    1.25286705780085    5.50272719056686
C         2.28646162950065    2.49822897793789    6.13250477496346
C         2.91128554569566    4.37401497103361    7.51182345145295
H         3.15064127756427    5.04704139198621    8.30973808966600
C         2.92065448672160    4.60819832852060    6.17021923439226
H         3.17700074177268    5.53311727962969    5.67973707859569
C         1.79752675556352    3.36705191470932    0.80780802154416
C         1.06405154419196    2.17867701198908    1.08818791095750
C         1.98924922938988    1.10804054356122    1.22725313181202
C         3.29461249934534    1.63072951784152    1.04228677176528
C         3.18181061033357    3.02524877582441    0.78494912256951
C         1.16271831751397    4.69623562947658    0.50136876814097
H         0.43370900753988    4.95918273916486    1.27303288038691
H         0.64083545323174    4.65595449806466   -0.45838548673822
H         1.90905724913116    5.48749732758548    0.45536989426402
C        -0.43193214314104    2.06039751540668    1.00729917604273
H        -0.92153935547354    2.74030438722750    1.70569300933074
H        -0.75155587114842    1.04592873060786    1.23611544885611
H        -0.77168513744520    2.31270954355449   -0.00029017725705
C         1.60716430443019   -0.33933144154045    1.33339073426006
H         0.87351577955754   -0.59509210536224    0.56644153378640
H         1.16714432546274   -0.55779817619531    2.30781623069750
H         2.47392067663832   -0.98354596388873    1.20108270312370
C         4.58029163136197    0.86389862564647    0.91620694931363
H         5.30821395176165    1.18910612026471    1.66047015027911
H         5.01368152916970    1.02890758191201   -0.07259588946318
H         4.41505105579815   -0.20382351684178    1.04468269979666
C         4.35092175454049    3.90119523434322    0.42833849712801
H         4.76055248768622    3.60776211302539   -0.54189897911069
H         5.14413711878971    3.80427684442592    1.17429507765014
H         4.05998819200444    4.94837176549341    0.37677115016137
C         0.45517783990002   -2.47980371698587    6.33386706125381
C         1.43575684960590   -3.16002776241712    7.04990550591715
H         2.47704815778955   -2.91698267703462    6.88681042237585
C         1.07458982069756   -4.13852026860016    7.95660781640288
H         1.83535539850982   -4.66674811847336    8.51122420481609
C        -0.26450971378247   -4.44035828810405    8.15255512544326
H        -0.54592217145206   -5.20632247468803    8.85920327966642
C        -1.24165501498997   -3.75972886470710    7.44552370433148
H        -2.28419875263159   -3.99259995264529    7.60177373235100
C        -0.88581532804334   -2.77722690781799    6.53727806049178
H        -1.64633967297543   -2.24181737528291    5.98673304491091
C        -0.47650042542819   -0.71280863548156    4.23379971101893
C        -0.99349372570701   -1.61045032962888    3.30170071737174
H        -0.49176673067061   -2.54932350111632    3.11516002283126
C        -2.14307740207148   -1.28872266631512    2.60500225700159
H        -2.54208800730514   -1.98330702060262    1.88070140894838
C        -2.77619679101671   -0.07503689775782    2.82971742086672
H        -3.66701017105977    0.17655516390297    2.27437140839795
C        -2.26188458792908    0.81630301850343    3.75637851405990
H        -2.73621886978302    1.77011260198333    3.92362115990499
C        -1.11682177848075    0.49868706138764    4.46610449771895
H        -0.71904240359110    1.20288732274577    5.18104428118776
C         2.32466784751064   -1.92602122693544    4.23578496349328
C         3.52673338097279   -1.26213746526426    4.01326012705301
H         3.67934392640482   -0.24763928129542    4.35241459171790
C         4.54334032789103   -1.90245335411448    3.32515494530763
H         5.47316136021691   -1.38038459980078    3.16144830850301
C         4.36718870816743   -3.19312332100157    2.85435657678731
H         5.16085334929959   -3.68547117961883    2.31260025740228
C         3.17302489560379   -3.85864457829246    3.08548568196754
H         3.03697246529985   -4.86918430493543    2.72976798153955
C         2.15655842540233   -3.23406788540150    3.78322901254241
H         1.23861612258170   -3.76688156216665    3.99324974563054

