25
CSD_code = RANTIK | q = 0 | S = 0 | Stoichiometry = C10H8Cl4N2Pd | MND = 4
Pd       -0.52167458980176    6.86052415006425    5.99167954548481
Cl        0.90544994146259    6.41373518796069    7.72334584488733
N        -0.51601050430176    8.73437071157710    6.46947412156709
C         0.06974623419006    9.62736055829578    5.67594322120185
H         0.52216494890442    9.25615655798544    4.75824929489359
C         0.09194744710086   10.97914016629255    5.99598566213055
Cl        0.86427941684570   12.09383008271817    4.94217398330833
C        -0.51426001780939   11.41421713949261    7.16876750475355
H        -0.50813543372938   12.45959035551383    7.43312308111542
C        -1.12080389385821   10.46736769756652    7.97833223691623
H        -1.60276319790083   10.76029868670181    8.89726735241138
C        -1.10060742150596    9.13646159794020    7.59845907578851
H        -1.55347857214226    8.35990311969218    8.21240729150525
Cl       -1.94899186744625    7.30726150799904    4.26043186590767
N        -0.52771936674248    4.98661592655153    5.51414591314369
C        -1.11359967987257    4.09373340435322    6.30771586461658
H        -1.56586169253908    4.46500524288747    7.22546189431280
C        -1.13611329561301    2.74196653446483    5.98764085178401
Cl       -1.90859227091047    1.62739612080792    7.04147315134064
C        -0.53007865684449    2.30678661523953    4.81480631631616
H        -0.53642319829664    1.26141929086834    4.55043267801453
C         0.07662223532639    3.25352035518981    4.00522776729831
H         0.55845172425221    2.96051837576346    3.08624795947487
C         0.05673486833126    4.58441953450546    4.38513351303042
H         0.50971684290149    5.36090107956809    3.77117400879703

