109
CSD_code = RAPDEU | q = 0 | S = 0 | Stoichiometry = C38H64O6Zr | MND = 6
C         1.00185067172360   10.76347545846606    6.06369660058313
C        -0.35054125580838   11.19211713915282    6.00166031817362
C        -0.80443342396794   12.11897584045686    6.92723814241495
H        -1.82418161038659   12.44967206462378    6.85118681659174
C        -0.01659519642353   12.64630999490134    7.94443924388805
C         1.28063338895078   12.16622988063601    8.04722854409495
H         1.92860104308015   12.50221721019574    8.84568001437165
C         1.77455539538809   11.23757016527657    7.15000541449978
C        -1.26752837803059   10.65623070996983    4.90790896073969
C        -0.73648376411771   11.16008758094096    3.55908245610336
H        -0.92981822850452   12.22667015397689    3.45577254258945
H        -1.22895645616650   10.64123920184864    2.73830984841742
H         0.34160861798032   10.99324778414087    3.50189555376438
C        -2.72609267464040   11.10566877071923    5.05297577227740
H        -3.14279081391181   10.78638127046211    6.00567527448832
H        -3.31637055446203   10.65368320073166    4.25787690731756
H        -2.82392311926579   12.18514490229539    4.96419099188131
C        -1.25159156811481    9.12138351833413    4.93982984213396
H        -0.23994399953312    8.75506007054560    4.78789370856624
H        -1.89353858149584    8.72011355977987    4.15729492311574
H        -1.61208507094104    8.76340910167513    5.90259544320770
C        -0.51326961801765   13.69735704048951    8.92595110934245
C         0.38043688074057   14.94132920844238    8.81499902969052
H         0.03280965055510   15.71846681850481    9.49301751227729
H         0.35383971058467   15.33013949566477    7.79924238666125
H         1.41210983053109   14.70921961485077    9.06467821455556
C        -1.95739396661876   14.12738916791733    8.65522660731001
H        -2.64091408852255   13.28787800836104    8.75627819218283
H        -2.05709069393401   14.55188127170752    7.65917630382326
H        -2.25109256744384   14.88792322818514    9.37649233086230
C        -0.44303952567544   13.13420107869457   10.35238895318972
H        -1.05763552272213   12.24020572434054   10.43211450544496
H        -0.80693107052521   13.86976062338903   11.06724200824141
H         0.57550508664399   12.87086055766879   10.62342585467964
C         3.15836378909380   10.67123948383808    7.30725792938626
H         3.60366390121718   10.98940259138973    8.26274823275819
H         3.11434935344301    9.57377318645354    7.27295167179389
C         4.40927428934635   12.40838119960121    6.30589022440657
H         3.52504864794176   13.05461887114312    6.27953115916527
H         5.03672783508766   12.59863819441764    5.43315461067986
H         4.97664590692081   12.59643311854950    7.22917614653396
C         5.69638290283041    9.81020455895808    3.12634918134376
C         6.28798575961031    9.98689361592345    1.85042059229315
C         6.93960892033557    8.91548326302592    1.26032642652200
H         7.37398558977346    9.06117293489373    0.28805530189753
C         7.06483413282415    7.66474845170388    1.85583354576889
C         6.50990565029032    7.50685043281703    3.11775040296000
H         6.59396544692104    6.56378736579057    3.64102052811963
C         5.85533319379470    8.54966025065957    3.74602079417686
C         6.17374261790710   11.33606294755787    1.14967873752860
C         6.74861546201013   12.43296318428621    2.05666507802667
H         6.21481213688806   12.45068081799530    3.00289993695634
H         6.65649197725005   13.40712823078070    1.57873990686911
H         7.80215461620367   12.24179571222221    2.25299770528962
C         4.68637299218928   11.59667737581456    0.87262973282173
H         4.31649636196531   10.84004323908547    0.18310138346181
H         4.54935547808452   12.57688314349532    0.41569839316177
H         4.10325174990159   11.53515603459525    1.79922521380178
C         6.92484623066682   11.39597999151201   -0.18582412590202
H         7.98700723956076   11.20663675847532   -0.04820818569292
H         6.81371796216146   12.39124004000950   -0.61280811633495
H         6.52425530275894   10.68098009693168   -0.90052415060431
C         7.78139654179666    6.49498744020176    1.19634526249662
C         8.31686897896864    6.83468482262581   -0.19720984539642
H         9.04495197245457    7.64079618538291   -0.15013957158333
H         7.50932742508539    7.12130700641380   -0.86636437641116
H         8.81014009737527    5.96105183126997   -0.61963936181130
C         8.97067078087989    6.07588631691012    2.07262087568233
H         8.64216098558423    5.76319954806783    3.05978724838755
H         9.65876063931678    6.90988913470012    2.19234134721834
H         9.50652040873965    5.24771041399686    1.61264784623714
C         6.80280201674059    5.32014984820560    1.05568915968248
H         7.28919305311396    4.48021341900282    0.56315795582793
H         5.94207939028830    5.61939115847185    0.46153713108518
H         6.44649174285793    4.98512615440598    2.02574504423569
C         5.29152275701282    8.40083544965780    5.13190564547055
H         5.58692392778752    7.43729867015112    5.57483381892648
H         5.65147747047790    9.22175287648959    5.76755358676843
C         3.24003181005680    7.35219628461603    4.61556185256733
H         3.55652858977319    7.19365786060279    3.57879775761953
H         2.16404273158267    7.53221347757982    4.65047963220817
H         3.49434011348924    6.47107180819406    5.22254741238832
C         2.17436183371707   13.51002621078588    3.51083108570709
H         1.56886445334606   13.41558592744120    2.58060078650753
C         1.30585208306859   14.23127634899777    4.56035210024660
H         0.50226583373818   13.57579743459411    4.88705583441122
H         0.88494690058799   15.14303390340401    4.14251854830282
H         1.90645698769544   14.48877509834416    5.43117301777106
C         3.40600962407668   14.37284995851165    3.17940980342678
H         3.96848911376704   14.58075850622028    4.08806684603792
H         3.09623259193558   15.31515252196944    2.73255038138949
H         4.05093229659005   13.84038510973382    2.48578018125117
C         1.76182596626859    9.14834060174618    1.82369960060248
H         0.88896145366550    8.89825346240062    2.46787673873301
C         2.04101088130578    7.93991863729406    0.91055980330556
H         2.96453210475140    8.11706802008313    0.36276627814525
H         1.22410411975140    7.79572794810342    0.20768070014065
H         2.16123294077266    7.03596207261044    1.50354839866136
C         1.39499034037125   10.37196845091323    0.95855966368353
H         1.50156045596691   11.27650901695128    1.56078756274336
H         0.37346881148237   10.29496008430442    0.59237669971409
H         2.06729038344491   10.43994541722500    0.10626136094284
O         1.54683359942860    9.91204760394061    5.21530909742262
O         4.03683100651872   11.04054551270434    6.23443089390201
O         5.07014298779921   10.76748902970345    3.78462024149661
O         3.85901709528586    8.50954611371209    5.15940793331673
O         2.53876602403419   12.25190131211296    3.95618573008188
O         2.86746904420793    9.40596554484457    2.61847288590577
Zr        3.14521565918810   10.47897593526294    4.16799081996173

