75
CSD_code = RAPHUN | q = 0 | S = 0 | Stoichiometry = C20H47Cl3N2NiP2 | MND = 4
Ni        9.08178659531228   20.14992137709643    3.27107904291928
Cl        9.48677907738692   22.32059881024448    3.30951169667026
Cl        7.07737727035547   20.45450810285104    2.79887569954516
Cl       11.11552540987071   19.69195277890865    2.80673837410681
P        12.50053670807483   21.99318736546446    5.02427446777982
H        11.40624333797131   21.62852310724771    4.29191929745453
P         8.73790132484754   18.32576460051303    4.55098982186157
N        12.72544277486442   20.77902045098420    6.14617061517538
N        10.00555457977890   18.22710860451711    5.67694515791224
C        13.88617006777014   22.19189833721103    3.76420885835174
C        14.38436824444694   20.77551135735612    3.47716873242274
H        15.12492018961014   20.80557949572015    2.68023358998350
H        13.55422355073459   20.15318908578392    3.14422635053490
H        14.85100059924577   20.32539515079357    4.35093737170132
C        13.24614573949463   22.75636328471548    2.49788919133835
H        13.96057640977006   22.70860330000545    1.67827339336397
H        12.93729179137231   23.78946817966858    2.61941855856469
H        12.37516547931811   22.16577362773529    2.22306305772780
C        15.02967598590283   23.07873371655679    4.24826583219137
H        15.79732750228505   23.12351919435514    3.47701555080564
H        15.48981652508543   22.68235527500984    5.15200391328833
H        14.69206639125475   24.09499648550132    4.43789110309122
C        11.94004753874559   23.51500647643733    5.95628051339323
C        12.91098027012917   24.01693535591815    7.02213329060424
H        12.52931812028200   24.95144723567655    7.43113076336875
H        13.90099241484540   24.21310611981408    6.61746455699441
H        12.99313243169488   23.30765197243667    7.84196994456976
C        11.65134784514426   24.59540113056729    4.91825040688519
H        11.10609296409285   25.41202728145019    5.38763357525016
H        11.02571901393100   24.18436497601728    4.12548172301177
H        12.56611801104537   25.00547115378320    4.49673530967005
C        10.62708852192733   23.08112433067240    6.60751024022548
H        10.20785171417613   23.90853227422222    7.17604287320546
H        10.78305311705136   22.24390476129445    7.28509387172071
H         9.90850412370527   22.79968738260360    5.83921916452008
C         8.81956803863362   16.72963675734733    3.51959206919958
C         8.14746282822459   17.14001593393359    2.20339279899850
H         8.18145652199988   16.32472970813541    1.48169965327670
H         8.66591177332993   17.99863841399114    1.76530336639111
H         7.10800998716401   17.42079278101829    2.36222968900192
C         8.12357076642377   15.47880811958510    4.05454906275766
H         8.22620266989144   14.68708357295623    3.31147457524296
H         7.06232444572324   15.63779824090456    4.21795703232057
H         8.57298639411746   15.11552198749833    4.97609787204382
C        10.28565057639914   16.39212551018477    3.23712684354769
H        10.34160398480554   15.70525700232825    2.39320083299730
H        10.76025617113917   15.91567757059902    4.08984635389018
H        10.85122297816340   17.28459009462182    2.98261744921678
C         7.16425172055513   18.34764100290763    5.64795083635862
C         5.87988543971667   18.14842837557996    4.84754554825849
H         5.02318800778303   18.35103468789152    5.49024191333397
H         5.78003043653449   17.13267140650395    4.47500215751987
H         5.84306993760507   18.84064172012524    4.01158043455722
C         7.15692430535375   19.76168314403339    6.23956016866868
H         6.25151615134660   19.92058772531174    6.82305338436607
H         7.17984808557061   20.50810309487525    5.44576550513551
H         8.01379584715701   19.91902341906193    6.89326404423042
C         7.20774797463768   17.34645206079780    6.80172752725971
H         6.28989820319483   17.44680116409798    7.38170139899129
H         8.04045221708798   17.54680724290327    7.46957835649912
H         7.26719180181601   16.31906103993906    6.45683958961939
C        13.91350732182010   20.76614665377311    6.98744925481938
H        13.63460418982537   20.50397920776406    8.01164968072630
H        14.37288641877944   21.75155132523200    6.99529850415980
H        14.65810726327756   20.04176243642754    6.64328176637901
C        12.15101269663474   19.45263293325641    5.88783830435855
H        12.32417147921513   19.12301734335195    4.86051639761582
H        12.63054560053613   18.75077094280986    6.57106949125994
C        10.63332647183096   19.45174355475501    6.12564751011171
H        10.19423995069033   20.28375135585165    5.55890430612404
H        10.43587571280883   19.62341286917258    7.19442992657443
C        10.39304546018672   17.06093730603604    6.44107900689944
H        10.34647144145422   17.26950651596432    7.51677533420840
H        11.41710079172103   16.75701849934471    6.20228931645476
H         9.72893629554464   16.23192513989795    6.22652682629993

