33
CSD_code = RAPHAS | q = 0 | S = 0 | Stoichiometry = C13H15CrNO3 | MND = 9
Cr        0.90166521811042    7.00678520679756    4.64187178451330
N        -1.16019633256919    3.11099104043605    5.85593473539706
C         0.72696533750603    8.62069906449295    5.46665944180845
C         1.93437685536392    6.69973090637933    6.10761618244858
C         0.49804756368870    4.84579030861845    4.09434068210300
H         1.04402640350577    3.92809408717652    4.27517751705883
C        -1.01013077735544    2.06048740079662    6.83845182494076
H        -1.68156458573716    2.17119860877948    7.70244647337664
H         0.01855299022809    2.04117488247492    7.19449891849034
H        -1.22902157849479    1.10628811554705    6.35895102575043
C        -0.62751556489061    4.40459443616546    6.28691064265554
H         0.38190011095109    4.19363822774903    6.66687600855006
C        -0.12502927291462    6.67906268096046    2.62999045563664
H        -0.03725276277379    7.18181217828000    1.67454398144526
C        -0.45892294401115    5.26474366750830    5.05059851526114
C         2.43641468808058    7.78661210590793    4.04057414825026
C         0.67194053791526    5.54855711598770    2.90662659292955
H         1.36559054868893    5.18655067071941    2.15690161071356
O         2.59664178929076    6.56246397140300    7.04543227979812
C        -1.08677086131256    7.08247044517534    3.55308507336905
H        -1.75870042167270    7.89949557874669    3.31626377069086
C        -1.25972596234829    6.37295056907456    4.75976174683562
H        -2.05971229328212    6.66728692153834    5.42626755138113
C        -1.39897118388616    5.10252874116748    7.41472816520945
H        -1.36868664829531    4.49066595197427    8.31283233739780
H        -2.44059563409509    5.26874241434724    7.15075603672488
H        -0.92791571486151    6.05762305269957    7.63672160767471
O         3.41762421165408    8.31322859061693    3.73348768031056
C        -2.50927795460202    3.15899117786755    5.33418635204749
H        -2.71583836420922    2.21563480908698    4.82811388733687
H        -2.59242514289648    3.96350168742016    4.60483837769832
H        -3.27417103814149    3.30217855108089    6.11173787416307
O         0.68517878336582    9.63462683302425    6.02021671803285

