68
CSD_code = RAPHEX | q = 0 | S = 0 | Stoichiometry = C19H43ClN2NiP2 | MND = 4
Ni        5.81726247864065   12.91496323252103    3.21665793304655
Cl        6.44307202797846   10.89232983614976    3.47138248491012
P         7.80088276956672   13.76085223753187    3.24850587641380
P         3.70762877664546   12.47561269711931    3.35579552254666
N         7.57805266326883   15.35730622868872    2.75464878896181
H         8.29255018419277   16.02641813996564    3.02118785843862
N         2.96081141533008   13.94332096556925    2.99416258491442
H         2.02852536913167   14.09512450876265    3.36203309740117
C         3.82839228811205   15.10570537975012    3.10463231593525
H         3.83917408970828   15.52919657292132    4.11953507497902
H         3.44382342361084   15.88808673448787    2.43178176167871
C         5.24332097063024   14.70278887090751    2.69267707584389
H         5.23290286317187   14.50759530468138    1.60408975752097
C         6.22162029993978   15.85011214134970    2.94538953248829
H         6.04778958834266   16.66481634813632    2.22566940029056
H         6.06144441656163   16.26444834940299    3.95065682220256
C         2.95465734843166   11.39088541715019    2.01167486317970
C         3.76159391455885   11.80152859010650    0.77634963614532
H         3.46131010064558   11.22143598555136   -0.09498024628163
H         4.82560878498875   11.62802188270684    0.95470355039926
H         3.60988390451521   12.85803080702517    0.55955371123899
C         3.18356905831503    9.90878497481514    2.28852709130432
H         3.03825666974822    9.33585821892562    1.37312833287667
H         2.48286495179019    9.53347745727128    3.03002476244088
H         4.19958700141803    9.73970063508978    2.64031416637230
C         1.47650666073418   11.67409332419479    1.75997148504519
H         1.14337409639517   11.09310279804364    0.90033128706599
H         1.31762506085517   12.72661986837328    1.53859340764751
H         0.85970336155359   11.39552375142186    2.60999236743109
C         3.11720613245913   11.99250037846065    5.09720295393425
C         1.60555047810888   12.06401502593304    5.28656440218889
H         1.36972092694754   11.93635479916978    6.34318598984087
H         1.10297419348424   11.27241670514371    4.73651456444863
H         1.19651338350260   13.02311698741442    4.97082452347904
C         3.63018695727919   10.61278883139785    5.50373926880661
H         3.56889549102288   10.50320226788218    6.58631093220227
H         4.66793432396485   10.48454007675970    5.20401034014936
H         3.04226207914257    9.81878194220006    5.05499484821139
C         3.80816481154192   13.04005242176843    5.97667971198707
H         3.67984578939926   12.80853974107364    7.03320193176662
H         3.41029344551844   14.03819404841271    5.79725590309420
H         4.88113072669584   13.04360125315014    5.75370322628981
C         8.66888942739478   13.85268782611424    4.93544080377106
C         7.75424341233660   14.74761738725419    5.77878293744555
H         8.01507711647048   14.67258590426018    6.83364381623534
H         6.71426334402852   14.43395406065676    5.66145663510586
H         7.83786296263592   15.79322967660300    5.48527634084283
C         8.70664490228011   12.46464490643800    5.56862166861430
H         9.04865405715580   12.53289751883635    6.60116337641695
H         9.37260312296216   11.79737968621079    5.03069402837547
H         7.71265744867418   12.02002228983990    5.56137372851676
C        10.06750082430093   14.45762126048541    4.88528645576640
H        10.41704430773009   14.64343115811282    5.90125009116959
H        10.07491146478718   15.40767579226657    4.35167078460008
H        10.77354332796785   13.78177520521547    4.41012329322628
C         8.96369852588328   13.15560280484064    1.89486476291514
C         9.99911366378625   14.19125883157042    1.46352265902358
H        10.53108506176496   13.81646661626432    0.58941272773966
H        10.73235704352188   14.38648292936169    2.24013331850298
H         9.51608383479368   15.12552899828396    1.18787441267518
C         9.63512878082119   11.84133636128517    2.27993379440395
H        10.09063231506230   11.38857226418239    1.39957506580176
H         8.90045443685246   11.14473903326079    2.68004582240450
H        10.41877040890949   11.99567678523065    3.01838474557609
C         8.00019943123476   12.90819909728655    0.72945286442346
H         8.52984709965030   12.51441104031668   -0.13672546746299
H         7.50769149984192   13.83716639091459    0.44416157931507
H         7.23866890128975   12.18159043752209    1.02400085575986

