77
CSD_code = RAPJAV | q = 0 | S = 0 | Stoichiometry = C32H38Cl2N2O2Ru | MND = 5
C        11.96135465771630    3.80170492025277   11.34892383783918
C        11.39221470434196    2.59712749613482   13.26973296899169
H        10.46058833437610    2.02455523403823   13.30481962134431
H        11.66702809223587    2.86444526243555   14.29489018398231
C        12.49727695067562    1.85614477721550   12.52095503482089
H        13.42769340863071    1.78046524775432   13.09511445198912
H        12.19853671207262    0.84915537635517   12.22179584004443
C        12.97705720762696    4.76975494641973    8.67184212452617
H        13.73907372613406    3.99221791146824    8.66139271908965
C        10.25008472659327    7.70085868886026    8.56822950001038
H         9.44693899394161    7.85181915655502    7.82825257745972
H        10.88994615147816    8.59308515949448    8.59785877616645
C         9.60044246753110    7.50040775480513    9.93566806824833
C         8.98990276380170    8.73372710120659   10.55026771625935
H         9.08006972749403    9.58595602743731    9.87584095680199
H         9.55833687768075    8.94408388445471   11.45999577541081
C         7.52873041937453    8.47806549141409   10.91763675125192
H         6.93346684156547    8.31408785132830   10.02187798493023
H         7.12044910008777    9.33030146364759   11.45411382952714
H         7.46137251681064    7.59635397124594   11.54837701723080
C        13.76923710063685    2.35093004588695   10.47229664475287
C        13.58796099784544    1.35255088046523    9.51413712005680
C        14.66913532279130    0.99706385027652    8.72127366164963
H        14.54073964914551    0.23215896732672    7.96867243610913
C        15.90820947280053    1.60706700930768    8.86224610170859
C        16.05608799085650    2.60652770706251    9.81279853811291
H        17.01055452633461    3.10197405037579    9.92027784988252
C        14.99995318870227    2.99347353110744   10.62463719186682
C        12.24905506829405    0.71552804067257    9.31746418160242
H        12.21519925091109    0.19035786233945    8.36699478597654
H        11.47018206116664    1.47742783968075    9.32585335000978
H        12.03595814361022   -0.00385778796365   10.10798180193357
C        17.05501587158645    1.19002093957573    7.99148261819731
H        17.34656709927441    0.16488723698555    8.21845365085778
H        17.91621957660615    1.83531887627007    8.14427188175821
H        16.76977434335790    1.22842526699953    6.94138915096248
C        15.14912301974486    4.11748771983458   11.60163926490437
H        14.47363962321531    4.92854092683336   11.32146274473094
H        16.16769743694406    4.49505341367232   11.60238392424274
H        14.89378830625259    3.80190349357130   12.61174856603005
C        10.38581131422932    4.84371144316776   12.94827177294850
C        10.97277044647545    5.86603862183347   13.70204257143236
C        10.15609666567473    6.86267143610444   14.21321638567039
H        10.60272523197450    7.66931086477718   14.77759056675777
C         8.78060533503118    6.84115308214896   14.03127940280101
C         8.21937742729778    5.78527751396220   13.33080582070187
H         7.14525373417286    5.73602805138728   13.21018067379680
C         9.00057788888292    4.77744718473017   12.78142649484344
C        12.44607129337620    5.89268410832639   13.96965069707909
H        12.66763402643821    6.55910497291173   14.79951514868396
H        12.97131790535694    6.26000495400788   13.08887611218726
H        12.82970695128308    4.90147871630609   14.20109541843779
C         7.92928999425133    7.93122401180836   14.61172725676245
H         8.26425748602988    8.90577890058136   14.25911139323656
H         8.00525708049296    7.92956841872054   15.69873652023366
H         6.88482066768360    7.80100367969760   14.33929557616354
C         8.36051640947699    3.64418958146215   12.04315781469145
H         8.36017252097674    2.73931223265320   12.65243552727156
H         8.89651646452642    3.43205423808498   11.11802094541370
H         7.32902804806560    3.88444209794155   11.79779018064033
C        13.05230302928962    5.66215113957977    7.56678964643773
C        14.11337207100019    5.64438742080085    6.64585476721145
H        14.88254543585973    4.89531687482545    6.76434861563333
C        14.18976588150872    6.57704565297503    5.63369887811038
H        15.01953784373352    6.55716612118435    4.94320929857863
C        13.20614807018177    7.54575954460412    5.49876509537340
H        13.26847326177218    8.27623564567660    4.70651549700404
C        12.12782506670771    7.58106259601233    6.37243010447531
H        11.35954916889267    8.32910038183214    6.24289584172223
C        12.04786532936497    6.64819612447697    7.38923687229996
N        11.21312533941280    3.79476305766207   12.45651171573871
N        12.70382504900104    2.69494827954940   11.34261790717348
O        10.99933241444000    6.55179988557010    8.26052640201298
O         9.56386377537808    6.41942625510964   10.46849087831338
Cl       12.50134788055291    7.05812022797456   10.82820991197829
Cl       10.08897943274542    3.59967037523087    8.99227095928599
Ru       11.56987162833195    5.12580871327330    9.89835012764638

