74
CSD_code = RAPJEZ | q = 0 | S = 0 | Stoichiometry = C31H36Cl2N2O2Ru | MND = 6
C        11.64803943603625  -10.49675170115663   10.11368550223687
C        13.62396847136517  -11.03744274484540    8.99564035048600
H        14.44416688818904  -11.60207900547970    9.44999190959066
H        14.04391616626393  -10.39416567476039    8.21737416455719
C        12.50007920122208  -11.93012376870496    8.47368404657847
H        12.32782838652477  -11.80822805234095    7.40067164484649
H        12.67126756304347  -12.99304115744217    8.67431951741873
C        11.16856611283848   -8.56613993933221   12.38671282186061
H        12.22553812024105   -8.30514540524553   12.40567127161727
C         7.25715977186529   -9.40974879693245   12.42965692295248
H         6.41566136775879   -8.72920073647071   12.22096181713021
H         7.13224561991071   -9.85573418575385   13.42393156748425
C         7.26563621576493  -10.50806639184053   11.36419779355924
C         6.32203423647718  -11.64548064380538   11.60523736967438
H         6.14583366100387  -12.18104568701811   10.67673031068260
H         5.38784592176154  -11.29979726073417   12.04006211514994
H         6.80398593993048  -12.32621430162689   12.30686109560547
C        13.74556669783658   -9.37358073824629   10.81100038870063
C        14.07724229322527   -8.09900919650410   10.34951509795286
C        14.90782120476809   -7.31220631406768   11.13352620221810
H        15.16660108993464   -6.31943815726163   10.79406063404323
C        15.40530448894509   -7.76364428672794   12.34862026004737
C        15.04518682047750   -9.02846586244955   12.79029647709018
H        15.40915174583751   -9.38323516329461   13.74408298726508
C        14.21481816534860   -9.84629057173636   12.03793659408306
C        13.50723041197409   -7.58153470691926    9.06775223298760
H        13.92496512404818   -8.10561917415538    8.20900349990852
H        13.72035517659703   -6.52222889831467    8.95617624100625
H        12.42639017879032   -7.72509904445793    9.06170066664588
C        16.31041003763339   -6.88869902567881   13.16250185607394
H        17.27746266923759   -6.78852251670094   12.66993803455970
H        16.47124553465094   -7.30689858870063   14.15281898442617
H        15.88621582793657   -5.89158769469453   13.26609492729406
C        13.77100946189363  -11.18067486017982   12.55184892111026
H        14.20553996330058  -11.38191231666587   13.52693714979755
H        14.05624064693031  -11.98314438247865   11.87290559604627
H        12.68286801371142  -11.18654205448393   12.64632883500047
C        10.09363914279409  -12.10687416664807    9.06902791364769
C         9.81279872987741  -13.24611089862880    9.82651810659252
C         8.59450864628649  -13.88425065031259    9.63605179667599
H         8.36300136732761  -14.75481069166283   10.23393125983464
C         7.67953632761655  -13.43466883784427    8.69749974795395
C         8.00681961579313  -12.33217708515174    7.92063054724642
H         7.30836352682586  -11.98628385726641    7.17141413270028
C         9.20678622050585  -11.65803040011693    8.08404998388433
C        10.80873180582850  -13.82431537864991   10.78643470000858
H        11.35912369201964  -14.63427146547120   10.30295996923991
H        10.30018711468671  -14.23175394951703   11.65619769709063
H        11.51434405998903  -13.07339432108944   11.13124968625462
C         6.37762837491273  -14.15127372277547    8.48814413190423
H         5.58051805717458  -13.45009432574402    8.24773550455823
H         6.09696731353177  -14.72048263635354    9.37171127565940
H         6.46845817872806  -14.84780053618845    7.65386102716486
C         9.54611353541193  -10.48520424801931    7.22057061995075
H        10.43704946354289  -10.68360625426165    6.62537293196625
H         9.74303505605267   -9.60458124449220    7.83367241077832
H         8.72535708119626  -10.25863811611906    6.54546372090946
C        10.40907492138030   -7.96943859726975   13.42974426338882
C        10.99917619139083   -7.26593583349614   14.49350765757841
H        12.07255794361666   -7.14486985053685   14.49542407724924
C        10.23332025126155   -6.76904037986019   15.52607851084687
H        10.70464357662489   -6.24377162331573   16.34317570515910
C         8.85685623839442   -6.94248541625612   15.52312844640313
H         8.25900384736229   -6.55280300908132   16.33298131891722
C         8.23286841422849   -7.60738117648179   14.47664823162283
H         7.15825705677930   -7.71603041925617   14.47677780008863
C         8.99725428757426   -8.11013226339967   13.44008818985229
N        12.94821115605951  -10.22834978449579   10.00750806936931
N        11.34853182414025  -11.45439842899929    9.23024981630619
O         8.48094633780935   -8.71828604941060   12.33242297060461
O         7.99500254399205  -10.43618097711323   10.40551680847378
Cl        9.94877086936954   -7.98482506088448    9.58613715898514
Cl        9.77034653642392  -11.42022024862306   12.64113249216468
Ru       10.18071206028472   -9.64528908798974   11.17384551139801

