54
CSD_code = RAPKOK | q = 1 | S = 0 | Stoichiometry = C23H19ClN7O2RuS(1+) | MND = 6
Ru        2.44358221183404    6.48553232439987    5.90257978624212
Cl        3.39881133903146    8.55967116232581    5.44667083344048
S         0.91808224062581    4.13722691985698    7.54112981266514
O         0.17941671595372    5.24578167750973    8.06581666406334
O         0.24275863664705    2.91175295343784    7.25655797945662
N         2.34204607307955    7.09969380936722    7.72625022943318
N        -0.37974438723054    7.64626169166029    5.03186097455621
H        -0.34412562182468    7.36805100631713    4.06078833038354
N         0.62625435296861    7.39300588933770    5.86162606719760
N         5.41725226379383    5.38852586125211    6.12471833454590
H         5.51516267563498    5.09232912718986    5.16343654769656
N         4.28128020682361    5.91923215148699    6.56944405387618
N         2.52763175725985    5.80570300853658    3.99261938443718
N         1.60304388870620    4.71548524188174    6.08424106145009
C         3.40740611841358    6.95909169494528    8.52437233202935
C         3.40621893593669    7.48093875127619    9.81401735524710
H         4.27203198764643    7.37033295203828   10.44537761336543
C         2.27645334322088    8.15795119233743   10.25056277014913
H         2.24712076812610    8.57060738090602   11.24658743619825
C         1.19703314033982    8.33346899744018    9.39573322394636
H         0.32661215373522    8.88820735236454    9.70359318987093
C         1.26731598323762    7.79382478823582    8.11606905574174
C         0.29626160087489    7.92552425968734    7.04792352476200
C        -0.96707342481719    8.53227101686860    6.94981127202341
H        -1.50533643047165    9.03920632061233    7.72215263532516
C        -1.36187388323504    8.33277299865360    5.64933195314887
H        -2.25610546930298    8.62903129241307    5.13967672090118
C         4.49825600847757    6.28811938276811    7.84383561122992
C         5.81890121635441    5.96587779685695    8.20198816031868
H         6.29535570382823    6.13927792784329    9.14313851456809
C         6.37061499392853    5.40161108117938    7.07781925527983
H         7.35660884191682    5.02273596038350    6.90165431824670
C         3.03489997786938    6.44088728405682    2.93593650104357
H         3.45582493789532    7.42011332392156    3.13447198686307
C         3.02526476408066    5.89851984603061    1.66299198107201
H         3.44662517293952    6.45461383988439    0.84178296786683
C         2.46614795512822    4.63784611838281    1.45987829817831
H         2.44611936167474    4.19775186150367    0.47568998499420
C         1.93691231214675    3.96626516676146    2.54224779799609
H         1.49051755873675    2.99021611787262    2.44022177599318
C         1.97801552403267    4.57142121428587    3.80482677231733
C         1.45941212878443    3.99977477781255    5.00556249497775
H         0.94638734792763    3.04570556482892    5.04690936008454
C         2.37716893208616    3.84962954844249    8.52393272899910
C         3.41575888433337    3.11784441823592    7.97927887389196
H         3.33127063450588    2.73622586838430    6.97263359673327
C         4.54123950517076    2.87411958349591    8.74952623786622
H         5.35977367442014    2.30036157264167    8.34329157483066
C         4.60652187844605    3.35503303033159   10.04892939587616
H         5.47943046341627    3.15182770915565   10.64982207029329
C         3.55275431292466    4.07797653611840   10.58524589348544
H         3.60017835011779    4.43361896706890   11.60248636373127
C         2.42652767838508    4.33021557739168    9.81752482971360
H         1.58389470346846    4.88292810201761   10.20172351140025

