41
CSD_code = RAPKOJ | q = 0 | S = 0 | Stoichiometry = C21H13FeNO5 | MND = 7
Fe        2.78722978414226    2.00600030053920    1.08508889589630
C        -1.38852226590258    3.36143311943930   -2.33350229063398
H        -1.51693157354093    2.88336794176962   -1.37551227467570
C        -2.41809585125750    4.06026313066705   -2.93015239419359
H        -3.37484056494119    4.13647744314182   -2.43528432539296
C        -2.22664042006106    4.66593189601690   -4.16351116928708
H        -3.03468722104920    5.21224675614623   -4.62687057478365
C        -0.99993449455464    4.57128918929918   -4.80179532300010
H        -0.85302232579401    5.04330625242917   -5.76173929235637
C         0.03779186913993    3.87459538211454   -4.21347198999665
H         0.99715074827260    3.79484635107674   -4.70096128789977
C        -0.15113256264503    3.26442185578212   -2.97311294923160
C         0.92490134891175    2.53520326026945   -2.34364706945497
N         0.85700280006656    1.91952418088512   -1.21786053652437
C         2.95760035008538    1.73797721132039   -2.14275604614470
O         2.14928373900249    2.48402227334467   -2.95784437528873
O         4.09460184722667    1.44679400278125   -2.40423824434115
C         2.13302639679246    1.40930627953715   -0.95455962441042
C         2.45347094133497    0.25931934599815   -0.14795305233757
H         3.21703206600861   -0.41322254716196   -0.52300098043152
C         1.75023522047604   -0.01748526054264    1.03591372953106
H         2.03803817127607   -0.88144468341323    1.62530206305284
C         0.75047559493489    0.86990909821429    1.49003069217220
H         0.13005172177671    1.34217282306434    0.73590524806424
C         0.11911117145036    0.74129830075297    2.79821654773160
C         0.75323297818773    0.13064932260931    3.88374592453672
H         1.76088870109291   -0.24415212505610    3.77685153365209
C         0.11441948816484    0.02054676864512    5.10281508232032
H         0.61899252895609   -0.45432486713596    5.93135389078705
C        -1.16662255518115    0.52275352534710    5.26974662450439
H        -1.66236535775485    0.43678322283353    6.22492918651931
C        -1.80321527486546    1.14394751726312    4.20750645997708
H        -2.79854480316361    1.54390503646028    4.33368654129527
C        -1.16637518378259    1.25588993653410    2.98731430923225
H        -1.66539709350073    1.74292817540684    2.16168793926764
C         3.38035972328973    2.01039244367432    2.74982701828740
O         3.78322702377203    2.08376121409822    3.81899413656606
C         1.99582337312146    3.63186459152052    1.04182667881560
O         1.56593464345878    4.68674098360803    0.98029569415153
C         4.43793030126235    2.40101702828906    0.56654630257784
O         5.48481501579018    2.74234332242990    0.27048930144548

