83
CSD_code = RAPLAX | q = 0 | S = 0 | Stoichiometry = C36H40Cl2N2P2Ru | MND = 6
Ru       10.35122299904111    1.78642034531376   27.30756117507779
Cl        9.54488743126835    2.99488008991631   29.23895938279136
Cl       11.42973511537024    0.82145305085927   25.41934819355862
P         9.46375200211717    3.50481624938998   25.97274348452785
P         8.34828033816281    0.63592608989947   27.37490990970610
N        11.23922657242410    0.30907231420873   28.33628998796406
N        12.40578349901154    2.73548311114907   27.96618422164874
C        11.00445215330499   -0.98647453680272   28.11399735857078
C        11.67156750556837   -1.99837144715540   28.77400453037190
C        12.64614682926416   -1.66951104067833   29.70342232533077
C        12.94320729367895   -0.32799825786925   29.88313491545609
C        12.23091695134828    0.62798343975250   29.17817301045407
C        12.53231783903331    2.08929435843391   29.28297456985488
C        12.48810112580755    4.17882229943895   28.18270386094876
C        13.53692057325306    2.33367790748617   27.13105211741769
C         8.01680968772261    4.46388589785116   26.63018206084267
C         6.63268249187871    3.92562889815555   26.25712439377187
C         6.50301365700713    2.40502259563230   26.27913516365906
C         6.89376587380958    1.75380123783870   27.61036783138709
C        10.67142530980525    4.82971521039523   25.61928601112113
C        10.68612162439416    6.08389221542724   26.21901045147614
C        11.65987448153596    7.00634564331027   25.87224970050507
C        12.63137605920473    6.68241903826714   24.94052120175348
C        12.63848572162745    5.42325305699729   24.35895084018096
C        11.66557918804577    4.50240599014774   24.69671644606243
C         8.93215709579541    3.28467233785515   24.23110374798808
C         8.57597435571092    4.40416448457519   23.48355440451004
C         8.14289367499853    4.25990850241457   22.17939072823189
C         8.06376640389325    3.00018102707190   21.60615907762021
C         8.42890556515395    1.88585649473444   22.34061880521669
C         8.86187513877067    2.02837463426281   23.64742205195449
C         7.73637155005162   -0.49929289208426   26.07112423568636
C         8.63200549980841   -1.05818766582661   25.16490491889775
C         8.18932967413008   -1.93612498280933   24.18971913721180
C         6.84907315439937   -2.26993760908323   24.11127508858027
C         5.95332617738861   -1.73040289063634   25.02087527369945
C         6.39165925662989   -0.85533803763207   25.99651753715739
C         8.15144590609264   -0.45385932995499   28.84015300485547
C         8.02026724371492   -1.83533057152310   28.72053367124096
C         7.88896084140785   -2.62662511955447   29.84712062425133
C         7.89174340257949   -2.05352703242377   31.10740182981292
C         8.02295472787908   -0.68109476394519   31.23470484095194
C         8.15132941493876    0.11461999742532   30.11084989045593
H        10.26449019054677   -1.21991490364493   27.35956596640256
H        11.42758606959726   -3.02597252400765   28.55817243861839
H        13.17721607816859   -2.43202472626551   30.25105844459929
H        13.72314569951493   -0.01659342762998   30.56096326856619
H        11.80339697119277    2.55185814070594   29.96054859724994
H        13.54090250244131    2.24815686716156   29.69626988247625
H        12.59686238432013    4.69213739857750   27.23202977788000
H        13.35780157715465    4.42429125306636   28.80753270265986
H        11.58475491725698    4.53114354073433   28.68040322778434
H        13.56525546032584    1.24913814126060   27.01948607164109
H        14.48501463555493    2.66849219738311   27.57549582456874
H        13.43432359108392    2.77663616442058   26.14075606070493
H         8.14413149404247    4.48101884587368   27.71620877679037
H         8.09356938031843    5.49163478338107   26.26632562385775
H         5.90060378594922    4.36495414891504   26.94099611234208
H         6.38310651713915    4.25984092979527   25.24636415582264
H         7.13752549270441    2.00185701794144   25.48211192651362
H         5.47196893893892    2.14656190103989   26.02594846261590
H         6.07074174434761    1.18334590466978   28.04914701909157
H         7.19326402933988    2.50305629078581   28.34548399353959
H         9.95467207089208    6.34095727188578   26.97093869742487
H        11.66088524313858    7.98250025621791   26.33564254992962
H        13.38660608835626    7.40659872699179   24.67227088684859
H        13.40273550838947    5.16283655207519   23.64089973141676
H        11.66292287971145    3.51453536235680   24.25239773895305
H         8.64757484830750    5.39140754185604   23.91945929617320
H         7.86707324262940    5.13320580748618   21.60544581438234
H         7.72378803089805    2.89230213871870   20.58631282457815
H         8.37948782703710    0.90139263037062   21.89887248969962
H         9.16780260035409    1.16496249433043   24.21686229355964
H         9.68035795347222   -0.79402696583856   25.20812871984841
H         8.89697036422549   -2.35695914936211   23.49055197838845
H         6.50071702681987   -2.95097367948301   23.34838195033818
H         4.90682284454305   -1.99553307404492   24.97078108968655
H         5.68299892527306   -0.45922144479037   26.70773321022040
H         8.01689345995672   -2.29993369921027   27.74427759714176
H         7.78569089537334   -3.69686503424153   29.73879905415912
H         7.79276019996783   -2.67474391748811   31.98565428572904
H         8.02605828241893   -0.22600114961122   32.21446920858392
H         8.26802884133308    1.18244104741366   30.22122023657543

