47
CSD_code = RAPMAX | q = 0 | S = 0 | Stoichiometry = C23H17N3NiO3 | MND = 4
Ni        1.55699720054315    7.03626295056060   10.60590093232027
N         2.28114434734229    7.05593963207662    8.93790954600322
N         3.45686983133813    6.36769601191590    8.84802438373264
N         0.87534998598925    6.95703686912740   12.42657859870723
O         3.05120679249985    6.01038676392895   11.04276499296543
O         5.57940071507226    5.31830382339198    7.77324570258765
H         4.73723697025302    5.83183211991316    7.83639509466465
O         0.14480695794618    8.04005856149434   10.07401871626681
C         3.79689040947038    5.84214125453314   10.00365772288490
C         5.02742063262251    5.05298728448356   10.10656880842886
C         5.85343431624521    4.82795814183657    8.99003261632610
C         7.00828085655889    4.06137998967253    9.15041915916318
H         7.63086694870413    3.89707413631580    8.28489963012722
C         7.33928958740280    3.53251524549301   10.38009792174653
H         8.23774913600109    2.94183418833402   10.48216722111676
C         6.52648617700725    3.75582345526325   11.48372242294534
H         6.78937726972752    3.34190378799443   12.44532975463770
C         5.38233104918490    4.51017422994952   11.34183234857408
H         4.73446800836492    4.70177529786664   12.18417305537777
C         1.84050147639053    7.62890052591155    7.84978788248177
H         2.46716789886482    7.49959177221399    6.97365629091363
C         0.64145619993286    8.37160729026716    7.75214469370015
C        -0.15706357694489    8.52618514776433    8.91592272596594
C        -1.37285641793744    9.26789452262551    8.82115286410572
H        -1.96001716237148    9.36381774124939    9.72248718152345
C        -1.77129615820321    9.82071556376790    7.65084907729936
H        -2.69654242819931   10.37724283120316    7.59764702338659
C        -0.99678025261645    9.68901855437391    6.46966095869926
C         0.21967526558276    8.96236279286732    6.51086317829183
C         0.95356199210249    8.86068163050782    5.31510372408723
H         1.88662087776778    8.32039637966011    5.29340711248426
C         0.51230086318405    9.43915313628425    4.15175694405157
H         1.09924835793588    9.34305707228653    3.24990197901960
C        -0.68830972979138   10.15158067677195    4.11960169551779
H        -1.02461077028255   10.60114519040950    3.19724459361173
C        -1.42790246526646   10.27161049232480    5.26588704561700
H        -2.35989612013709   10.81917248079143    5.26285690449421
C         0.30178155049493    8.02141099425439   12.99050079075666
H         0.20252653605538    8.90266204214459   12.37038005541779
C        -0.16472920634262    8.01824345367700   14.29381630011474
H        -0.61897883473475    8.90621419560605   14.70428033712971
C        -0.03722852366737    6.86522964154271   15.05130055768544
H        -0.39011275712347    6.83018945539694   16.07104090507982
C         0.55460257723327    5.75832071088521   14.46491827013990
H         0.67501158504845    4.83670422426821   15.01207749930114
C         0.99633006082061    5.84527945236005   13.15566971620773
H         1.47253196992383    4.99902828443750   12.67744506433510

