59
CSD_code = RAPQEG | q = 0 | S = 0 | Stoichiometry = C26H24N5O2PPd | MND = 4
Pd        8.19470710971946   13.43531368354640    9.84188033162579
P         7.42805863317046   13.58711942371890   11.93462572705261
N         8.93469174590147   13.26509312501158    7.97589880162064
N         7.46303783817573   11.45587254792433    9.78312467414400
C         8.70962929182860   15.35122701563644    9.55524063965107
O         8.43247908741559    9.68014656245801   10.85186914583718
O         6.05143053290109   12.70691956766231    8.52036559916734
C         8.80268633729943   16.46774618392327   10.37661117199572
H         8.76740439830908   16.36076112918605   11.45449412542720
C         8.96935690032157   16.85927097590924    7.63083079390902
H         9.03336587401168   16.99396956891075    6.56040435884095
C         8.97378406609594   17.74224056578384    9.85148769060731
H         9.05338696484400   18.58691811555758   10.52057862489679
C         6.47166333810041   11.61010898189665    8.88072793593420
C         8.82404425497290   15.57502892043049    8.15995588918140
C         7.66236363114105   10.13500514395082   10.02862251558648
C         5.99063311534214   10.25253396915349    8.46425292465468
H         5.20841974706923   10.09771164794842    7.74529490107652
C         6.70819926442750    9.36659200526077    9.14542551307936
H         6.66496031392777    8.29389612926731    9.13516423080342
C         9.03305136723299   17.94396778742615    8.48102711796702
H         9.14184637736365   18.94197205334052    8.08449218947088
C         9.09730236947480   12.02405861737707    7.37055655485666
C         9.83603781041352   11.07036363807421    8.07704006811672
H        10.27273592548582   11.34899085593016    9.03387363620332
C         8.51383601820324   11.68770355213826    6.15075618145675
H         7.90768422412560   12.41248496394462    5.62662175437145
C         9.99151770716332    9.79966180227091    7.56365899913507
H        10.55713336620415    9.06440353944759    8.11512181159548
C         8.66606855848544   10.40626017856518    5.65321286044417
H         8.19876497712840   10.14012583150855    4.71684645885334
C         8.83251882032542   13.73409947488895   13.12223260930594
H         9.20237316198690   14.76255027272307   13.12008616411114
H         8.55374644183499   13.47114252503073   14.14472124074013
C         6.24797150990658   14.97855933053930   12.23659906214427
H         5.58169204491648   14.78772159474198   13.08163933081044
H         6.80766732319272   15.89346702373310   12.44206210875832
C         6.49229085296657   12.13005927806750   12.58375078646725
H         5.55875081101191   12.09097444467847   12.01063302743245
H         7.05647595868502   11.22917774339058   12.33074409399468
C         6.19134136421261   12.14598843515612   14.08934436980023
H         7.04809157717514   11.78553114378051   14.66419936570648
H         5.93232773752206   13.14879998587210   14.44424516374789
C         5.43454918650545   15.14965384395490   10.94219766481241
H         6.11140656012637   15.14970078631518   10.06683550268507
H         4.72686534639428   14.32458153155696   10.81109864763275
C         9.92335529780966   12.79409566505522   12.58072302277166
H         9.56600586174453   11.75723473023016   12.53979251574818
H        10.18287388241984   13.10278674424336   11.54694388973054
C         9.40245998291018    9.46470922253915    6.35272121916469
H         9.50946173775489    8.46508585213418    5.95991411084474
N         4.17471023842656   10.59812285826968   14.55669064190088
N        12.02143859742391   12.91735689498910   14.07809865063679
C        11.10244731403969   12.84940956303916   13.40176833672298
C         5.07250883015219   11.27726474642321   14.36383268494918
C         4.70703325743677   16.39017321414565   10.96201824567278
N         4.14720877903942   17.38529343228506   11.01406954066344
C         8.90661131698870   14.38694559401901    7.35405432173832
H         9.05343506084155   14.45174598504695    6.27422045375189

