63
CSD_code = RAPRIL | q = 0 | S = 0 | Stoichiometry = C22H36P2PtS2 | MND = 4
Pt        3.02937738308927    8.95838173351714   -0.23343557095452
S         2.55348520315895    6.87234663712713   -1.40176266886099
S         2.90168364620211   11.27971922769800    0.56995930167310
P         4.01321632706135    9.91879896859962   -2.06678665126348
P         1.87357727055631    8.14467660825629    1.57364230272831
C         4.00158466447224    6.19710066983784   -2.12826034877109
C         3.89996394657446    5.68022131414464   -3.42902425742575
C         5.02259235082646    5.13246123595024   -4.02754119652156
C         6.23328019455191    5.08321889037850   -3.36007405968338
C         6.31722738626653    5.56185495385116   -2.06530897791772
C         5.21214846206224    6.10633820529665   -1.42914872869316
C         2.59073565623221    5.70141065973497   -4.15544206179218
C         5.31909758108097    6.56919358544969   -0.01067772124693
C         3.31932894413406   11.39224161894013    2.27333806820554
C         4.47843710432900   10.79969737678352    2.79262794315635
C         4.74846380469247   10.92260077660835    4.14788494902001
C         3.90962521287962   11.63765535360857    4.98282899824714
C         2.79360133362071   12.26053580524489    4.45448608837575
C         2.48754635373147   12.15711150420566    3.10668420214322
C         5.43324680843988   10.05692680653173    1.91136228791431
C         1.30450801546532   12.88979130668735    2.55109067240212
C         4.61850741882180    8.98371837448043   -3.51785434667356
C         5.44999474603873   11.00481493157176   -1.74576281194408
C         2.81760440797054   11.05380862530802   -2.85121002326159
C         2.84399934165401    7.77030479383989    3.08030479291415
C         0.54893604500828    9.21532134717925    2.23501896592096
C         0.96177631410268    6.57781736070958    1.34047713916142
H         4.94550202621037    4.74006731534997   -5.03187539300317
H         7.10381752529081    4.66251378371241   -3.84140292965134
H         7.25479122806217    5.50245995321960   -1.52990012643772
H         1.93225282036528    4.93028783000058   -3.75483197324332
H         2.73176962026811    5.52102294197549   -5.21866241137839
H         2.08463826180863    6.65540266979881   -4.01095051297631
H         4.82055423327997    7.54630041821312    0.10589422946094
H         6.35707733118270    6.65785379589647    0.29902954939174
H         4.81219828771687    5.86240328376054    0.64846146598923
H         5.63797327430995   10.45654894855111    4.54895405945196
H         4.13289954888944   11.72118129793977    6.03611546956671
H         2.14714209517627   12.84240402331188    5.09642494472684
H         4.88269324174655    9.49358006025783    1.14251320073951
H         6.04807008995442    9.37062438822038    2.48833302843043
H         6.08682367984789   10.76156583664544    1.39616577891684
H         1.63252274469129   13.83197717323934    2.11051543890073
H         0.58003451119339   13.10876622293605    3.33250841420230
H         0.82687357660339   12.31620259063434    1.75893148285800
H         5.43138756351897    8.32041065976873   -3.22909129452118
H         4.97208078537448    9.68614056785884   -4.27225624960030
H         3.81387468512941    8.38217451320706   -3.93242596630958
H         5.18468460048635   11.72964402207840   -0.97916390545015
H         5.73293956300266   11.52328671359705   -2.66080739210236
H         6.28732691619411   10.40196385431108   -1.39729863303817
H         1.95858419053508   10.47909331424971   -3.19568957482681
H         3.27854463540715   11.56670942071495   -3.69482347802646
H         2.48200109631088   11.77987224882273   -2.11302150516194
H         3.62752559990707    7.05392650704311    2.84023865620715
H         2.18706501201260    7.34937706969912    3.84041391829838
H         3.30125765216041    8.68130293952753    3.46153455237753
H         0.98849068910406   10.10585991995601    2.67712721723138
H        -0.01993864426666    8.67725945686204    2.99266082942119
H        -0.11258454323014    9.51169791719275    1.42236322367928
H         0.27385056048682    6.68474149673669    0.50394054283168
H         0.41022086099810    6.33113195005298    2.24699918580811
H         1.66030875725589    5.77947622311092    1.10115987037968

