105
CSD_code = RAPRUX | q = 0 | S = 0 | Stoichiometry = C52H48P2PtS2 | MND = 4
Pt       -1.66567832479807    3.57947830992515    2.17491835098126
S        -3.93574084196784    3.54327657917761    2.93596375145917
S        -2.13318513658331    3.23379173504982   -0.15073963323742
P        -1.27365886018139    3.57659821838567    4.50310547215710
P         0.53947561368054    3.76208491150888    1.49208081739383
C        -5.01394560087442    4.42199879844698    1.85047745735718
C        -6.30997371987272    3.89518116716041    1.73778691933340
C        -7.23905348922794    4.54510820281901    0.94505428306290
C        -6.91176713280420    5.71198194076097    0.27898360960725
C        -5.64304339153574    6.23752438060732    0.41765813851723
C        -4.67926510203974    5.61279378672877    1.19854773019930
C        -6.69564073422658    2.65992527036626    2.48966138307764
C        -3.33108451303955    6.26403560561308    1.30920108691521
C        -3.70642913643894    2.45866243861634   -0.32341274825020
C        -3.96880952132681    1.23709049248315    0.30625218269893
C        -5.20074295587218    0.63496629100431    0.10899988020877
C        -6.15247631651191    1.21645382702093   -0.70947110282344
C        -5.86598501468529    2.40173389714586   -1.35932423539751
C        -4.64351652555096    3.03304615588964   -1.18832501394244
C        -2.93264475415972    0.59196993915098    1.17036194322388
C        -4.32297572018767    4.27459136588557   -1.95938401395318
C        -1.79111932020753    4.97229577091627    5.55516273152604
C        -1.38816434753196    5.04972619496141    6.88660237273321
C        -1.79673824862470    6.11300913077247    7.66939207668186
C        -2.60716626719668    7.10376080086675    7.13603873046326
C        -3.01731884674973    7.02483920713923    5.81619175514821
C        -2.61063155128366    5.96213187679395    5.02922710747171
C        -2.23087187014679    2.17737145970519    5.16261101023334
C        -3.22426494804058    2.32116784398265    6.12244222832320
C        -3.96719545355208    1.22144537030659    6.51496824957951
C        -3.72990395945749   -0.02146535178564    5.95333943353853
C        -2.74557219152267   -0.16807257559323    4.98922569926826
C        -2.00373040934177    0.92707276647719    4.59042427340605
C         0.39626875816395    3.28516882096064    5.19940947092935
C         1.26394950591736    4.37374951411538    5.26633637940611
C         2.53394627324965    4.23135491557186    5.78906945870051
C         2.95890221183580    2.99684723653273    6.25250257811239
C         2.10516943292503    1.90981182285832    6.18558787818391
C         0.83213728846150    2.04902769825221    5.66150620976380
C         0.95139464841401    3.66681924805269   -0.27664699334376
C         0.50510057977006    4.71823413277677   -1.07525647754964
C         0.73958303853414    4.70400509681761   -2.43523302060649
C         1.41988809406002    3.64112477797573   -3.00894082185761
C         1.86133827904358    2.59378295981218   -2.21877307957528
C         1.62538203824244    2.59937843558753   -0.85482780888604
C         1.60872251429125    2.49049492140849    2.22765760011723
C         2.85024990447476    2.71236987992135    2.80582723682115
C         3.56125281489217    1.64666643580254    3.33044457444368
C         3.03998624997441    0.36474871175013    3.28736374340643
C         1.79595976587439    0.13998588482035    2.71873486272422
C         1.08417009831874    1.19961858513839    2.19230057080281
C         1.29721091441984    5.36646798473048    1.89672551898923
C         2.55933943500032    5.71687029167052    1.42550608178932
C         3.09000838784134    6.95555843672993    1.73486881898005
C         2.36273676796970    7.85610349398274    2.49839575798754
C         1.09475407783863    7.52288585764941    2.94483931532974
C         0.56383086532039    6.28181284719380    2.64158746320920
H        -8.23203359037863    4.12860905474579    0.84968713923755
H        -7.64319136206820    6.21084978225613   -0.34053230472025
H        -5.38322263908068    7.15651665142989   -0.09034815163647
H        -5.94933928948328    1.88036287093947    2.34686028851166
H        -7.66339497590014    2.29261299175216    2.15683148965718
H        -6.74534056752635    2.87184828879685    3.55883759760031
H        -3.33790556155308    7.02064559649485    2.09661092363867
H        -3.06806627674696    6.75739840841395    0.37504123331540
H        -2.54794788578509    5.52025402425843    1.53688069154779
H        -5.41286694302640   -0.30524585922022    0.60024683306010
H        -7.11197925481721    0.73918326081079   -0.84749895687069
H        -6.60011926207783    2.85017491026570   -2.01374168309030
H        -2.09621579543064    0.25176035430806    0.55643756363249
H        -3.34433224929522   -0.25345848758083    1.71653210090759
H        -2.54823312748186    1.32588896062661    1.89364164658543
H        -3.71167440547890    4.94702083322110   -1.36302422738684
H        -5.23341066937291    4.78591543024215   -2.26260115470973
H        -3.75076521488182    4.01542102394238   -2.85215646506624
H        -0.75983776464594    4.27644217954591    7.30674899972475
H        -1.48426958728734    6.16874541872897    8.70216120744166
H        -2.92194099446124    7.93254267903143    7.75310346841154
H        -3.65746991553340    7.78902545301106    5.40012737099422
H        -2.94607518639590    5.87515355987180    4.00632649329807
H        -3.42861080098227    3.29160694877693    6.55056367514965
H        -4.74326792559906    1.33914010151529    7.25726183677105
H        -4.31886164380206   -0.87401259815789    6.25847322244343
H        -2.56506796070530   -1.13466578959677    4.54095708979888
H        -1.24443683178207    0.82421443320353    3.82503993687548
H         0.93086456490953    5.34256546894172    4.92224318786064
H         3.19129259449706    5.08737488041881    5.83983210639677
H         3.94918541179391    2.88451046512238    6.66832002593832
H         2.42799663728439    0.94551412663803    6.55007836226926
H         0.17360241767417    1.19406726367567    5.63297241759412
H        -0.03608853560683    5.53570694956458   -0.61741439311862
H         0.38588117728111    5.51681289615848   -3.05221269891365
H         1.60034037047400    3.62679692130280   -4.07376520778812
H         2.38810203682288    1.76336364176307   -2.66648261930100
H         1.96588046948103    1.77505884383350   -0.24380042971824
H         3.25755982641469    3.71126186161287    2.85706652951941
H         4.52927980176444    1.81995368339447    3.77722748598462
H         3.60183570492588   -0.46001404173120    3.70028016324067
H         1.38607034511862   -0.85920711224279    2.68723019429137
H         0.11275184228235    1.04851788661968    1.73499840184506
H         3.11354632952426    5.02327643000979    0.80750344051320
H         4.07217477732068    7.22460923548863    1.37407729669134
H         2.78190992736524    8.82317602054803    2.73408849889734
H         0.52001520813905    8.22926050940803    3.52626368410348
H        -0.43258657888840    6.00957978936216    2.97571844377466

