95
CSD_code = RAPSOT | q = 0 | S = 0 | Stoichiometry = C39H52FeN2Si | MND = 9
Fe       14.29793314066614    2.17287708068110    0.69471762589282
Si       13.75819318863610    0.00207861501431    0.64280280729468
N        14.36708459999577    2.93044148222541    3.53454092479711
N        12.55313675704311    3.57495052007019    2.56466006525547
C        13.73631856070165    2.95588713423694    2.34017665360636
C        13.56952033368438    3.49049528480531    4.51140770652964
C        12.42418036395691    3.89619881316197    3.89980999980261
C        15.68399132627794    2.35905176147393    3.72350847674853
C        15.60486670202818    0.98407653870191    4.38261905138369
C        16.63897397279242    3.29120871529817    4.46969978496291
C        13.92535440895102    3.63033559930998    5.95037462235465
C        11.24718850130408    4.56524546533002    4.51998882335287
C        11.58039067722108    3.80982964472103    1.51778201062144
C        10.44548248583819    2.78676077139699    1.55886128964337
C        11.04030425817459    5.24068889292950    1.50764232151500
C        13.16865614448129   -0.71655243875880    2.31248431630060
C        12.47067685552714    0.08341154888068    3.20708437670056
C        12.03496804818131   -0.39828289481489    4.42775472211574
C        12.29201711880908   -1.71262078795004    4.78065601244101
C        12.98540277011181   -2.52884163688858    3.90361004176870
C        13.41561409027311   -2.03223650966096    2.68515229039391
C        15.20701653486454   -1.15723067384058    0.21514809363680
C        16.25222106408533   -1.27477695367440    1.12396886990727
C        17.32295926105122   -2.11781521176732    0.89384159333928
C        17.37331025052507   -2.86701062101233   -0.27062359442895
C        16.34289938228873   -2.76608801136600   -1.18914512748297
C        15.27212206898475   -1.92279844263399   -0.94196973738633
C        12.32799221086245   -0.55767301744054   -0.49647894930045
C        11.51432567493523    0.37272807389474   -1.12717458679100
C        10.45914073207708   -0.01080138570151   -1.93497470644589
C        10.19014235441159   -1.35580272701741   -2.12224407059260
C        10.97415890093687   -2.30195077695345   -1.48321260381684
C        12.02700317465244   -1.90348485375141   -0.67865065083528
C        15.85324846220457    3.42550276958881    0.30148741622230
C        14.64549978679821    4.03367470431436   -0.14403618778447
C        14.06841798771848    3.19374597801285   -1.12234288827654
C        14.91741771385092    2.06265587709657   -1.29619913215905
C        16.02616856544436    2.21842484729579   -0.42522183269583
C        16.88313352068324    4.11460816968348    1.13089185863094
C        14.22919570879922    5.42058782642083    0.21878000977498
C        12.92249060197275    3.55015035450163   -2.01352063019750
C        14.77771335282896    1.06808372177843   -2.39824448804893
C        17.25466642843833    1.37696351078726   -0.37126447695439
H        14.98400388784045    1.30564425931760    1.56556719069759
H        12.92733059483201    1.85778312163324    0.65181163103297
H        16.03924227844389    2.21283351294374    2.69996700686401
H        12.15605799747099    3.62736901379267    0.60854205615739
H        12.29466271673510    1.10729443769389    2.92732062136449
H        11.49788872046498    0.24979886063327    5.10741237282728
H        11.95648686698179   -2.09800200548815    5.73343083584047
H        13.19217112057634   -3.55571137940079    4.17240956972152
H        13.96672256635888   -2.67640990207674    2.01564878907529
H        16.21430871787703   -0.68236232302425    2.02555984208547
H        18.12164478832647   -2.19466898548101    1.61915127740138
H        18.20845013238755   -3.52698529099808   -0.45921130579755
H        16.37222849635751   -3.34956866953094   -2.09950399709023
H        14.46860484539566   -1.86578721517723   -1.66173846147690
H        11.72087930921168    1.41730055948491   -0.95694246791215
H         9.84384994100787    0.73656165907966   -2.41825392698874
H         9.36974260124968   -1.66521485277916   -2.75467262164784
H        10.76081543344187   -3.35412874798433   -1.61312062312387
H        12.62412610323076   -2.65028766810293   -0.17691129140074
H        10.84728095874463    1.79287698309037    1.38080107287492
H        11.81233405955735    5.95122345249076    1.78881352457934
H        11.26019631736144    5.64010098103628    4.34021021245066
H        13.02413819024758    3.81053338737586    6.53105737358025
H        17.66289187683357    3.04079575007862    4.20487757911555
H        14.96364630364904    0.34069807667061    3.78689858917982
H        17.58594711223561    3.40508511911049    1.55729949264067
H        17.55189200040515    1.19905161728809    0.65936278396149
H        14.98486601170193    1.54483495019844   -3.35901847543412
H        13.24214121156848    4.30884331852086   -2.73161043977246
H        13.27028770027551    5.67237235935531   -0.22294713186480
H        16.59969122592457    0.54902133552594    4.43395989902093
H        15.20043777953941    1.03368255636091    5.38976307057317
H        16.46218577006719    4.32818233119402    4.19703132022202
H        16.54251234440455    3.19165971659100    5.54662098475887
H        14.39514600694196    2.72896716078325    6.33187044080907
H        14.59935328472805    4.47133517071622    6.11248631272411
H        10.31468412542753    4.16079236048126    4.13746503639844
H        11.26520471472098    4.40785640996953    5.59553664422564
H         9.93006643799238    2.78881984008038    2.51543225331504
H         9.72557564574887    3.01315675655023    0.77663298084663
H        10.69981805036180    5.48647766036699    0.50446251074584
H        10.19443188143732    5.35799039078239    2.17820395799508
H        17.44787559471099    4.81658146013791    0.51252807532138
H        16.41450181387517    4.67706217286318    1.93342634773790
H        14.16316069048918    5.53452364986597    1.29914944368218
H        14.97033418648419    6.13365967210178   -0.14760474794702
H        12.58302250315633    2.68188926313818   -2.57000521565376
H        12.07886020666661    3.95397966185861   -1.45652192073625
H        15.47500859159661    0.24714733816828   -2.26712036408462
H        13.77102545129450    0.65820556542265   -2.42931198929546
H        17.09529775228484    0.41370985185621   -0.84357199364296
H        18.07536903824807    1.88332853710384   -0.88339222767474

