97
CSD_code = RAPSUW | q = 0 | S = 0 | Stoichiometry = C49H44ClP2Rh | MND = 5
Rh      -19.27781199829032   -1.75620493647400   -3.03277549287435
Cl      -20.04152705856695   -4.03583960926996   -3.05886581692468
P       -21.25098541400935   -1.08377571644032   -3.94234527145137
P       -17.31673333251355   -2.39878278750787   -2.06943577259691
C       -19.52455411470799   -0.34773223289355   -1.51719852987565
C       -18.95393466596292    0.98177902616429   -1.89227824112899
C       -18.33900552361089    1.03647777464426   -3.08529735088706
C       -18.34392578689787   -0.16800476943190   -3.87345961635198
C       -17.81671482167790   -0.32966668199645   -5.09598954677750
C       -17.88955731889103   -1.65981894146501   -5.80199384063697
C       -17.11827600541450    0.73837927387476   -5.89311517445619
C       -19.09101695987654    2.10990990324722   -0.97788004090305
C       -19.27683141155204    1.91768077350906    0.39285907166879
C       -19.40651730748740    2.99224557567590    1.25136988401508
C       -19.36467220577267    4.28742689673370    0.76412444299744
C       -19.19065309589289    4.49585491474852   -0.59440763369464
C       -19.05530625689842    3.42351854515729   -1.45291537569674
C       -21.55343886146393   -1.47396095236271   -5.70083721206258
C       -21.19640449110766   -2.74874782198981   -6.13222735852500
C       -21.42768227228652   -3.13565868204881   -7.43914169759658
C       -22.02029900659825   -2.25389524935561   -8.32807436307458
C       -22.39005019936862   -0.98917018446782   -7.90106529392752
C       -22.16263234281440   -0.59751765051496   -6.59335145236585
C       -22.76215596509442   -1.77583979564242   -3.18575139744917
C       -23.98665636037138   -1.71958303394362   -3.84411011488959
C       -25.11912808703873   -2.23774490138676   -3.24385314953394
C       -25.04053524777456   -2.81412780531669   -1.98596843331037
C       -23.82480977720091   -2.86967503061569   -1.32574856658186
C       -22.68997884022628   -2.35161300929696   -1.92310711747412
C       -21.58131349461624    0.70520545213783   -3.84197632297512
C       -22.41120810903507    1.23738585642111   -2.86253132918272
C       -22.54429727753866    2.60837468675369   -2.72945920563182
C       -21.85132520956646    3.45940895770839   -3.57182163444081
C       -21.02051710622452    2.93562713299459   -4.54979790684893
C       -20.87708948542690    1.56793671396573   -4.67839000559170
C       -16.32290474788479   -1.02429860966733   -1.40388581605228
C       -15.65226805861279   -0.18952683094162   -2.29453467346919
C       -15.00911334968281    0.94476657995737   -1.83957432461237
C       -15.04342329326257    1.27039516310755   -0.49308513323526
C       -15.71044811584410    0.44791343679036    0.39745347599769
C       -16.34747326000980   -0.69461565829889   -0.05385060408275
C       -17.45897805391505   -3.48458256998722   -0.60799875762194
C       -16.34053410100631   -4.13008622622630   -0.08853614562532
C       -16.46349273390645   -4.93565101391689    1.02779478858046
C       -17.69901747607247   -5.10389567775700    1.63351386629467
C       -18.81355925310195   -4.46152613795136    1.12206025155007
C       -18.69391832998958   -3.65338594050150    0.00550930619571
C       -16.11778315928854   -3.35183805387977   -3.06512164900525
C       -14.74304501032175   -3.14233797687088   -3.02515460606204
C       -13.89982349743375   -3.93667811805138   -3.78251519043670
C       -14.41588543200785   -4.94598163858670   -4.57814161111318
C       -15.78306913740664   -5.16777371139232   -4.61002252745177
C       -16.63012517024279   -4.37624589753701   -3.85706839181256
H       -19.01476633377334   -0.73282645338623   -0.62235922307052
H       -20.59153921418103   -0.23487112183899   -1.27152114609048
H       -17.84151247666119    1.92641152090285   -3.44378509654924
H       -18.43767822394506   -1.56761337884303   -6.74148785133368
H       -18.39628389575319   -2.41016190744617   -5.17934271823120
H       -16.88751689702329   -2.02611563066872   -6.03339879089408
H       -16.09549513124845    0.42880663230310   -6.11441380236575
H       -17.08623855795188    1.68794820810046   -5.36894408839396
H       -17.62898472693714    0.88394921047608   -6.84644252100795
H       -19.30358148416930    0.91670170282526    0.79574302901869
H       -19.54290748374676    2.81923224448242    2.30972828060794
H       -19.47040238321136    5.12655985802785    1.43604088972626
H       -19.16480082936143    5.50294035397249   -0.98611690359861
H       -18.94303900010761    3.60047538001389   -2.51145679966039
H       -20.74625300090389   -3.43893343826154   -5.43108906410981
H       -21.14582576742419   -4.12629337153077   -7.76471505335905
H       -22.19921658928996   -2.55177335148112   -9.35096890858870
H       -22.86264469716668   -0.30323897927036   -8.58975569593574
H       -22.46193500031571    0.38969207713409   -6.27018813631882
H       -24.05074796785507   -1.27462911025185   -4.82736313114009
H       -26.06686823945694   -2.19598577801834   -3.76112271602500
H       -25.92683218598162   -3.22344399625827   -1.52354076780113
H       -23.76001114430579   -3.32279424268458   -0.34718700234096
H       -21.73352218113804   -2.40884871105611   -1.41958002877839
H       -22.95819698878282    0.57758384656340   -2.20266386293763
H       -23.18807194281409    3.01286236567703   -1.96211721667972
H       -21.95426795339880    4.52901059201643   -3.46373663326437
H       -20.47660483669193    3.59790519677430   -5.20833985936759
H       -20.21473684046346    1.15646434663321   -5.42670759663156
H       -15.64660094031092   -0.43565086942084   -3.34682725917023
H       -14.48811406862306    1.58452919517374   -2.53718545739800
H       -14.55267479054639    2.16498973117289   -0.13933593781877
H       -15.74083291863088    0.69992999639792    1.44751701404467
H       -16.86411744778218   -1.33456123280059    0.64918151389883
H       -15.37701240098712   -4.00192901458133   -0.56216821130058
H       -15.59360604918453   -5.43790945673310    1.42596792557552
H       -17.79163246246810   -5.73957919528889    2.50201356406685
H       -19.77793693088222   -4.59451822546786    1.59046700527349
H       -19.56483625928209   -3.16302538486485   -0.41025187185135
H       -14.32780158246259   -2.36079547156390   -2.40423589010917
H       -12.83286283031731   -3.76779811697630   -3.74752944445303
H       -13.75230560938317   -5.56114192399167   -5.16839582668607
H       -16.18896694964494   -5.95964529257732   -5.22238737987662
H       -17.69730919342831   -4.55401161262543   -3.86992271968823

