73
CSD_code = RAPTEK | q = 0 | S = 0 | Stoichiometry = C27H42FeN2Si | MND = 7
Fe        7.02664907241701    0.70570494666803    3.35228976055232
Si        8.76731528181863    1.43770832834185    4.49097686492756
N         6.49811637304586    3.27885838390931    2.73570997989944
N         5.78171204058668    3.16140054919189    4.76916354666302
C         9.50085227823208    3.09902344756863    3.94509509104667
C         9.05006372613489    4.30357420434376    4.46571410674017
C         9.55078380260108    5.51706301005511    4.03085282597206
C        10.53554958673213    5.54931111413085    3.05712708328286
C        11.00965772228217    4.35871264942120    2.53048047563674
C        10.48868530943994    3.15454966128095    2.97007026342611
C         6.33771836250570    2.42383922757971    3.78254225068886
C         6.03723839398917    4.53839898363452    3.05918171755468
C         5.58955293082283    4.46630256820678    4.34304707678794
C         6.99828630709746    2.70430064822265    1.50389982619272
C         7.91587672436374    3.62396477320574    0.70662426647611
C         5.81759292621551    2.21824692578728    0.66320244474649
C         6.06477190631279    5.71497835637649    2.14945059482443
C         5.04216561589744    5.56498308969843    5.18552803450226
C         5.45228087735546    2.53825658625217    6.03070635042115
C         6.11107392917423    3.21749724461796    7.22804917817861
C         3.93887544750103    2.41062747776258    6.21337450120851
C         7.33953263802216   -1.17908741990970    4.36666393319141
C         7.67735402525080   -1.25712160398790    2.98926210828982
C         6.49188488722319   -1.00287157240260    2.23272326852690
C         5.43145429199992   -0.73563333417109    3.13786839107223
C         5.95856066664412   -0.83250565436495    4.45737660245408
C         8.19117894102540   -1.59851926770885    5.51842395315742
C         8.97833450691059   -1.73206864803954    2.42325519683598
C         6.39960497212921   -1.17846617422347    0.74802980155042
C         3.97967295859438   -0.55827222204973    2.81431066109883
C         5.14060310180519   -0.91832792974906    5.70716994960326
H         8.65791295845737    1.57178073227519    5.97359876665263
H         9.97793992431231    0.58176510816903    4.35055840909205
H        10.85925736764952    2.22900107082517    2.55166937588431
H        10.93464672906105    6.49432909303268    2.71518557632857
H        11.78387414850663    4.37419286523867    1.77487951807087
H         7.60531455415090    1.82333241262101    1.82998894508100
H         5.88112406773431    1.53669087635783    5.92281781450806
H         8.29299868555955    4.28944524826463    5.23555722006664
H         5.60733372332648    5.48125309107839    1.18957749358432
H         4.72228035082149    6.38951076752755    4.55321729341341
H         5.20557153351663    3.06127338553905    0.34838709926895
H         8.46863517959354    3.03335669692919   -0.01957680464383
H         5.67743105676484    4.19181009183516    7.43245408029126
H         3.72405506601226    1.73711063489205    7.03843342507832
H         6.16804828296667    1.69587911407451   -0.22142664112412
H         5.20883087800218    1.54465961088671    1.26042911835938
H         4.18582590516304    5.23571596273799    5.76795817129926
H         5.80232591302022    5.94378587569100    5.86984310207589
H         7.35335382733687    4.37944654868021    0.16613517628112
H         8.63136723361800    4.10810987914729    1.36443852338034
H         3.47631109835805    3.36939451483648    6.43280839656513
H         3.48935976218251    2.01097286941578    5.30768630148096
H         5.97826743180998    2.59514920031837    8.10923269618906
H         7.17680203689892    3.33144370068762    7.04886049037373
H         5.51448898902455    6.53910932987077    2.59537027060969
H         7.08850095000623    6.04526100439411    1.97790909061586
H         9.00619983945492   -2.82259367608761    2.37320438353813
H         5.44598868082404   -0.82856232409262    0.36102437564720
H         4.23590246100921   -0.32371910566453    5.62780577274933
H         3.41535473473837   -1.44976747009337    3.09435495371000
H         8.03457666787037   -0.95019337544633    6.37651133112356
H         9.12778854653509   -1.34396600001292    1.41792163144309
H         9.80728017143529   -1.39876067942354    3.04258448703661
H         4.84487818150968   -1.95703986376996    5.87461767670753
H         5.70744455974874   -0.59434593739680    6.57689248652585
H         7.19770725601740   -0.63822458444389    0.23883540597658
H         6.50059319706147   -2.23493989674794    0.49213171447512
H         7.94402162260308   -2.62112939621212    5.81104397334662
H         9.24345740937173   -1.56140252963999    5.25705618490323
H         3.56305508139469    0.28764840530975    3.35894903833087
H         3.82742620857391   -0.38588355109698    1.75132214469224
H         9.17866812387130    6.44167194976946    4.45248142549978

