93
CSD_code = RAPTAG | q = 0 | S = 0 | Stoichiometry = C39H50FeN2Si | MND = 7
Fe       26.04012308772094    6.39258621930234   14.10182230027616
Si       26.85630354658935    5.78580501262536   12.11318301330103
N        23.50556571974549    5.03593403614694   12.93279000041029
N        23.83212395951390    7.15278363162107   12.68027472288662
C        24.36452907310357    6.03343578783393   13.23890265792929
C        22.44937251913696    5.52372659423186   12.17984215790834
C        22.65437105328366    6.86024732043435   12.02500551380401
C        23.72763467493436    3.70191090617693   13.44565102093363
C        23.82458970683234    2.63517211769986   12.35898047234816
C        22.68419722452137    3.32359906467101   14.49935226284700
C        21.35380439757010    4.69486561148379   11.60737299800133
C        21.83220502716642    7.84739386759293   11.27566079839447
C        24.46517760834545    8.41986541811587   12.98191717485688
C        23.75953954571035    9.06140144425980   14.17617684611074
C        24.55825671880987    9.37648471589157   11.79870641290758
C        27.31411859554156    4.00319931433405   11.59154402408558
C        27.15207206829684    2.92852903923359   12.45134679937106
C        27.48585742852667    1.63997810086862   12.07346428406679
C        27.99238686133472    1.40425054866613   10.80699520849275
C        28.15637016490394    2.46380231713592    9.92983092122522
C        27.81858360657728    3.74683292902028   10.32160645373705
C        26.02205879817065    6.34771546034380   10.46195522858840
C        24.92991406953080    5.63820223627983    9.97489662589912
C        24.27521440476361    6.00806043186512    8.81517060118220
C        24.71343671734123    7.10635248911081    8.09411807432834
C        25.81551681887511    7.81343991179301    8.54240639061649
C        26.45429715116527    7.43694519538544    9.71278059136827
C        28.49636615937974    6.75801928908957   12.04167538203005
C        29.72953123250940    6.16080426643971   11.81798127804072
C        30.89335997723395    6.90950269316899   11.77408569273975
C        30.84212961164651    8.28256574621130   11.94321856861632
C        29.62189876017155    8.89698783620673   12.17369484044165
C        28.47039729832834    8.13499565044455   12.23404381779780
C        27.61683929508650    5.36703116754941   15.32018783102778
C        26.32627587526626    5.00090691221540   15.80083308341512
C        25.65318621842718    6.19211928113478   16.21737458479056
C        26.51951506322339    7.28425865606063   15.97242611813784
C        27.72728936572405    6.77623200384933   15.39861922394115
C        28.75733941252150    4.45496602902586   15.00129712768860
C        25.90697745249510    3.61971358337710   16.20391437218053
C        24.35647001411628    6.22056386447955   16.96818636574492
C        26.35758192391032    8.70692406293828   16.41001176083777
C        29.00078789878453    7.54989873251068   15.27531954351397
H        24.59457592994773    4.76743384636974   10.51539967246728
H        27.31654837911655    7.99756302744209   10.04343980266559
H        27.51990459482277    8.61230468555754   12.43691037031737
H        23.42446651090643    5.43826438243794    8.46629972222340
H        27.35273344460681    0.81699707286827   12.76323874976752
H        27.94693228048641    4.56747265614582    9.62965870896563
H        24.20806732255551    7.40106055054479    7.18496170896164
H        28.25689324621664    0.40088474057518   10.50347896968239
H        26.17862738545880    8.66239450863640    7.97872406227862
H        26.75202496697285    3.12160208101692   13.43268510262771
H        28.54927731566834    2.28613603283551    8.93790547768685
H        29.57570634654449    9.96948165046588   12.31065908416721
H        31.74767137664710    8.87117982825064   11.89879467927169
H        31.84382210849135    6.42302089506649   11.60113057536681
H        29.77722883070527    5.09155427740513   11.66618759897404
H        24.70334384491392    3.79392927293253   13.93222899795841
H        25.50125743226717    8.14498615017651   13.28306494261802
H        25.28795702220873   10.15130542934785   12.02153167158365
H        24.28148797618392    9.96019979895374   14.49013645795445
H        24.57009595793532    2.91443817137781   11.61987240924061
H        21.61053898861824    8.72275566812535   11.88321307309693
H        24.13864187102732    1.69770538096489   12.80993166482864
H        22.87161836786957    2.47156420894717   11.86519547210038
H        22.73738464565360    9.32829097243744   13.91684828321996
H        23.73749905945122    8.35373436507094   14.99981775333804
H        22.35199429121957    8.16878221121529   10.37375539111471
H        20.89024651566329    7.39455793265482   10.97876072352451
H        24.88451964225692    8.84449189171008   10.90925410325996
H        23.60776060464299    9.86166709375322   11.59944391046047
H        29.67509065664999    7.08032033480385   14.56568362083633
H        29.19182974997055    4.69842237956534   14.03480609645750
H        26.35984304634896    3.37744299032426   17.16871376489128
H        24.02454791696040    7.24134014548453   17.14134418081876
H        26.60216551288665    9.39454166915402   15.60064100444483
H        23.57400767938818    5.69836186322087   16.42103991900619
H        24.47110234961060    5.73580146830605   17.93902593444009
H        24.82937718771386    3.55603494801704   16.31776598362852
H        26.23150421803386    2.86319853629797   15.49350021485080
H        29.53560980744824    4.56910783901101   15.75802443578060
H        28.44778900391011    3.41501049421185   14.98809571368783
H        28.81713960958952    8.57091932995707   14.94997387163812
H        29.50182687985144    7.59210993661294   16.24591640329967
H        25.34595143667021    8.91540060982259   16.74766891136574
H        27.03920528214315    8.91709311055266   17.23637566425144
H        23.01566987795569    2.44166425547165   15.04061231257765
H        20.96111223145645    3.98656519147268   12.33169251707917
H        22.55072743569555    4.13853420016096   15.20633113534194
H        21.72046398706797    3.09703153679970   14.05139438657247
H        20.53689039990640    5.33632246444770   11.28694491574791
H        21.70625336503596    4.14150841614820   10.73649672688836

