60
CSD_code = RAPTOU | q = 0 | S = 0 | Stoichiometry = C28H25BrFeO4S | MND = 6
Br       11.32017127675617   11.33058448569292   15.82103827616434
Fe       10.05452494938966   12.75651065992802   14.46571287949712
S         8.51646182920507   10.94067873472339   14.18121764778044
O        12.55547015286793   14.02342088444813   13.68265932568756
O         8.65190287243648   14.57635994363805   12.72161092639888
O         9.66923308374478   14.05638270160212   17.08095265557343
O        10.42856892823988   10.92674212639816   12.16530127461145
C        11.57567830427606   13.54200350526125   13.99728123029446
C         9.16650282857090   13.86059986692446   13.44573956784982
C         9.72093490695737   13.58371736223761   16.05090507034364
C        10.03116204921415   11.48391831505697   13.10755985583229
C         7.03598377486852   11.59128801054268   13.40426572888391
C         6.15057836230057   12.33132523566444   14.19396945403195
C         4.96911425222132   12.78261816517856   13.61351648746355
C         4.67705712498971   12.50786760386637   12.29040817382626
C         5.55892472618655   11.76499982823271   11.52843699486446
C         6.74318332330081   11.28221702949590   12.07687844979462
C         6.42048331021251   12.64147227357027   15.61523372966829
C         6.56848881135189   13.97114206096706   16.02559925875522
C         6.79811472037873   14.24883866540024   17.36610481687328
C         6.89408369624566   13.24223521202352   18.31312657336957
C         6.71296532645719   11.93219554355274   17.89490139253351
C         6.46302710248596   11.61582741552616   16.56870664626036
C         6.48204751167253   15.13254502083795   15.07616130382234
C         7.19597482191362   13.55259653424212   19.74570517601324
C         6.19896084398831   10.18056976035822   16.21893398897347
C         7.63451886590147   10.44829976067464   11.23974295909078
C         8.37503577237338   11.02563398463781   10.20880476114803
C         9.18918988843462   10.21789146194235    9.42657164473366
C         9.28107180388895    8.85416214427005    9.64563601431416
C         8.52208682507818    8.29521544818665   10.66522753127812
C         7.69632762267071    9.06871502722598   11.46272674745892
C         8.34184994358458   12.50128400049187    9.93071503835702
C        10.16023695126234    7.98793802308055    8.79706362791145
C         6.87766492435145    8.42306134226826   12.54146898507443
H         4.27422792573120   13.34179575073313   14.22180979001605
H         3.75572577886697   12.86528444351891   11.85569175818192
H         5.33485086127121   11.53276477470151   10.49801664776375
H         6.91305424206234   15.27996687573913   17.67033924071183
H         6.75697580874098   11.13310810758639   18.62091781278552
H         7.33057751840859   15.80094207449899   15.22119468307310
H         5.57645882054802   15.70532512982834   15.27729509488291
H         6.45810156045293   14.81816182429101   14.03721355507583
H         8.25524326637249   13.38453462709384   19.94206829788330
H         6.62717125875748   12.90598522113378   20.41030830746757
H         6.96745042594613   14.59006025412613   19.97715569653669
H         5.74526687328232   10.07992460905233   15.23651601211578
H         5.53040754164678    9.74032255566294   16.95677052070277
H         7.12755073658098    9.60993035529975   16.23388154135693
H         9.76982366306367   10.67427039893231    8.63738812001528
H         8.57674790781845    7.23037150699272   10.84257345079990
H         7.86859129429278   12.68930999739346    8.96693731627812
H         9.35690857157772   12.89457646863526    9.88316566601727
H         7.79134900592402   13.04888526750924   10.69198688787753
H         9.55264648503096    7.37617395097946    8.12961741699339
H        10.74981463443348    7.31764993209457    9.41951390998734
H        10.83415069835295    8.58996441111409    8.19306276331009
H         7.36874256368170    8.52952122341296   13.50929672860104
H         6.75925241372752    7.36097240178427   12.34149554554705
H         5.89142865564837    8.87963969974689   12.61179904148587

