66
CSD_code = RAPWAI | q = 0 | S = 0 | Stoichiometry = C19H42OP2PtS | MND = 4
Pt        1.87301106711345    4.85737723173583   12.72041481245287
S         1.26965669254190    5.18137131010607   14.98090314250377
P         2.15964210030428    4.65243288191324   10.42526701585905
P         0.57859184967114    2.85938003855908   12.53218989228076
C         1.50412092491603    6.92287670338374   15.45232244651086
H         0.89469978650891    7.07892923242812   16.33979943871261
H         1.17042931644360    7.58210298641309   14.65677968740133
H         2.54795580048014    7.11576316073832   15.68904134197519
C         3.03616366607185    6.45901527159136   12.86145774634556
O         2.69519113067384    7.54062962946715   12.44083537176920
C         4.39901850460568    6.23497627807799   13.50915571341096
H         4.25127546986642    5.73735541977915   14.47249387914214
H         4.96000361826282    5.54027738461287   12.87461518970038
C         5.18745478642531    7.53145635852575   13.68733727853837
H         5.30584611199668    8.01227374148718   12.71366990376080
H         4.61215333509847    8.21341490450845   14.31686299547921
C         6.55288443795589    7.27860241518383   14.31126059069283
H         7.09496130429327    8.21339677176362   14.43531826239051
H         7.14665801647663    6.61892338917208   13.68097095601864
H         6.44610900353335    6.81214095643480   15.28861640749589
C         1.47121435174871    3.02622821143613    9.83687763346724
H         1.12341788666778    3.13422441425278    8.80549157182382
H         2.31565859802680    2.33335998736881    9.82017793896745
C         0.36325720990898    2.46049063603199   10.72462357112297
H         0.28778457499772    1.37734754589764   10.59058557705164
H        -0.59498104299495    2.90109141381010   10.43705883637346
C         3.72435063298147    4.74183104322758    9.40710403101349
H         3.50057882091739    4.39960409625628    8.38895292627801
C         4.76713998018995    3.81531122100616   10.02945392270728
H         5.72836767368270    3.93820093796782    9.53328140204123
H         4.48030857220541    2.76952584442056    9.94328727197700
H         4.89069902302509    4.05036008076950   11.08574348413782
C         4.24784259501839    6.17521228878886    9.37084174188462
H         5.26762108977892    6.19313563759410    8.98923391806049
H         4.24966549470733    6.60363200410100   10.37182623570411
H         3.63909146726886    6.80674575883958    8.72882066616433
C         1.07637343805998    5.97207892024958    9.68835543987923
H         1.65875214882505    6.88930343402497    9.83949207388193
C        -0.18747777861833    6.09784350723509   10.53642101501768
H        -0.72408758162220    7.01159825983066   10.28869243991287
H         0.08634597631718    6.13784986398210   11.59968675734162
H        -0.85488832441463    5.25403826960700   10.37449646820214
C         0.74795191871984    5.81456116388004    8.20787133602787
H         0.24843286187783    6.71303018985840    7.84905454249109
H         0.07473234864781    4.97527384288496    8.04260046314550
H         1.64421136268722    5.66560271669751    7.60931143871370
C         1.59386269833551    1.44178082479717   13.18579280290894
H         1.29498843856009    0.49992402269953   12.70817116624638
C         3.05233507823802    1.75308217218804   12.85518009940860
H         3.72111014020125    1.04327112691210   13.33943289715068
H         3.29214431846873    2.76142876699710   13.21932391667789
H         3.23309276503988    1.71552576238718   11.78350488440091
C         1.42369002448703    1.35197774927280   14.69999790764598
H         2.19229691638935    0.70888463378215   15.12595492816555
H         0.45452644289647    0.94285415976658   14.97441144812759
H         1.52312298762092    2.34516379743227   15.13966141716354
C        -1.12190832692371    2.54424296396722   13.21588147442116
H        -0.96664145919867    2.54444178952675   14.30115280262159
C        -2.01667331330889    3.73758509605976   12.89148963200938
H        -2.95487731924843    3.66734265205477   13.43866347347339
H        -2.25064924109428    3.78597311558375   11.82915286809015
H        -1.51627647601463    4.65966260660765   13.18530252608642
C        -1.75597079066304    1.22494579735199   12.78932593395452
H        -2.68800842749800    1.07485505620124   13.33230669493095
H        -1.10189076131559    0.38240923108558   13.00227216521393
H        -1.98586391675350    1.22617131942266   11.72586618546389

