61
CSD_code = RAQHIB | q = 1 | S = 0 | Stoichiometry = C31H26N2PPt(1+) | MND = 4
Pt       -9.63950619693951    2.72766475696940   11.74365628845610
C       -10.44633542045338    3.71881822694766   10.14433694506546
H        -9.71412951375878    3.72445223675426    9.33052994585548
H       -10.74014437213995    4.75360305449836   10.32123220204076
H       -11.33999092633748    3.17709613203892    9.81545803905267
N        -8.66797140247319    1.50733051762854   13.25876759625636
N        -9.12515685538390    1.07958101178793   10.61450899338569
C        -8.48557516083372    1.70533423997008   14.54837352320918
H        -8.99680700437076    2.54906231692734   14.99188804336863
C        -7.68436861917723    0.88078546417593   15.33982665514908
H        -7.56920634802517    1.10125315519073   16.38840351463468
C        -7.06118103757492   -0.20022665783271   14.76455792280426
H        -6.43410167238827   -0.86075556827359   15.34370082187119
C        -7.26076373238092   -0.45433721699993   13.39743011228188
C        -6.68825981944292   -1.57326227933430   12.72879762619117
H        -6.05688012460206   -2.23783127516556   13.29808964911212
C        -6.94239747857269   -1.80542176708745   11.41910115023427
H        -6.52064474667942   -2.66170594978320   10.91582032220918
C        -7.77967018865583   -0.93357423213610   10.66550237109725
C        -8.08920513763186   -1.16560806813092    9.31503498076959
H        -7.67931361604448   -2.02851585689183    8.81318918384885
C        -8.91993886125672   -0.28619317970531    8.66474023609063
H        -9.19399405346311   -0.43448030291706    7.63298447305462
C        -9.41266615272312    0.82546711708310    9.35038744588486
H       -10.06015474080980    1.52338072575717    8.84002023996344
C        -8.33437549928707    0.20848457638393   11.28482728138909
C        -8.07921526021533    0.44291942142196   12.67608727646132
P       -10.06646181661216    4.48812318033026   13.10982213820098
C       -10.66772509542562    6.11112867677427   12.56037695573102
C       -12.02117326042280    6.23317523248080   12.24903654027467
H       -12.66843156688873    5.37170593686311   12.34706459837069
C       -12.52371092727514    7.44591756078394   11.81904929600166
H       -13.57235770406707    7.54050906796592   11.58197653364607
C       -11.68004123521329    8.53935006097747   11.69088643836164
H       -12.07379679274580    9.48658223590063   11.35613388409468
C       -10.33295648651508    8.41685555029390   11.98844219422268
H        -9.67676066859915    9.26751367378476   11.88462821468796
C        -9.82124386714503    7.20486809532822   12.41940644566631
H        -8.76960192081896    7.11004544138341   12.64908255503846
C       -11.27876479358865    4.03575857730950   14.38012464564240
C       -11.74639840379213    4.93980143571058   15.32952342227263
H       -11.39782873392752    5.96320531865763   15.31988205146878
C       -12.68070608617478    4.52930517099679   16.26339213096755
H       -13.04228038566171    5.22734530747256   17.00297649294403
C       -13.16237206138892    3.22924039041945   16.24443467800409
H       -13.89362836983284    2.91685779069605   16.97386560836268
C       -12.72327336045486    2.33601590596171   15.27969747225348
H       -13.11870448366493    1.33192964327222   15.25196258904074
C       -11.78472261286432    2.73910836672928   14.34807059179806
H       -11.44404035201510    2.06011493533585   13.56703361494115
C        -8.47499358308459    4.86591439898288   13.90473147865401
C        -7.35445223347992    4.64116659225769   13.10613032966799
H        -7.49990986840587    4.26819713606253   12.09076261455979
C        -6.08818614097708    4.89918616512375   13.59515348546648
H        -5.22112499767250    4.73201626934394   12.97405789466323
C        -5.93526735007394    5.37513527806518   14.88891912649708
H        -4.94794374661372    5.57746048768944   15.27454685845128
C        -7.04621116597374    5.59052220315526   15.68828106951236
H        -6.92249415060791    5.95882155406396   16.69533202571909
C        -8.31794809293551    5.33847335479390   15.20136830730874
H        -9.18043374351825    5.50152840575560   15.83069487777992

