53
CSD_code = RAQJUQ | q = 1 | S = 0 | Stoichiometry = C23H22BrClN5Os(1+) | MND = 9
Os        9.55598476391999   11.14808333338465   10.18897543572924
Br       14.64866595089285   12.44883611288599   16.52750867939160
Cl       10.45510177811483    9.06215685675577   10.17041866407005
N        10.96602705775050   11.75006699602084   11.38588254746230
N        12.17348562064066   12.30593853367894   11.16938285138430
H        12.52699882686300   12.50405014021973   10.24532057294242
N        14.09189882502106   12.89050936100925   12.48023546795157
N         9.07342992681072   10.41489476026916   14.18653166659746
H         9.50425517548779   10.41799417209570   15.09619790267697
N         8.79650292531465   10.67556980566888   11.99261882007289
C        12.87630790734967   12.39724730249458   12.33052429556031
C        14.56721794394657   12.88328634045766   13.70738708376861
H        15.56340048952572   13.28103061239562   13.83303109647156
C        13.84845092752372   12.39552584567416   14.81065575854104
C        12.56954968463719   11.88415779768772   14.66388983256373
H        12.01768128981768   11.51192358431365   15.51186984361384
C        12.05348591085827   11.88175127768467   13.36954807186776
C        10.86175451642681   11.47954750658913   12.71208956007878
C         9.62166718252615   10.86472684959909   13.03535244358025
C         7.84265495828797    9.88276097608519   13.87556720803737
C         6.86901424811047    9.27846235744019   14.65615546186908
H         6.99954580806842    9.15420117513742   15.71888101828315
C         5.73108583012637    8.83810070501461   14.01095002769348
H         4.95219075583287    8.35900358287853   14.58238183511284
C         5.56374340254222    8.99041865217582   12.63137783931178
H         4.66025651553075    8.62074364398677   12.17282410891900
C         6.52357831595656    9.59481373578538   11.84826964161577
H         6.40253027976048    9.70095342490278   10.78225724687548
C         7.67687246426931   10.04949618434424   12.48087534659918
C         9.17739708771230   10.72419499374709    7.56506546014471
C         7.88280615214943   10.77179308203782    8.11725659047905
H         7.19246653549456    9.96622434888167    7.90580444829430
C         7.44095359516622   11.89011041497906    8.83417350589378
H         6.40861916162868   11.94019857099958    9.15675903945791
C         8.28386091083775   12.99114893615985    9.06608126652683
C         9.61331699182989   12.90348772348286    8.59081345445249
H        10.26277495584743   13.76711840382977    8.67494900901750
C        10.04307717291125   11.80083325828930    7.82685838702977
H        11.02145378413390   11.81765655620096    7.36363774651090
C         9.61356640522352    9.56955846954014    6.72982697634586
H        10.05069841585292    8.80313335854507    7.37392187725065
H        10.37008595394910    9.87043997205567    6.00935854819091
H         8.77106117200556    9.12467769931088    6.20627107880605
C         7.77807541466786   14.22967103766300    9.76473578255527
H         6.74052472930578   14.04963926436345   10.06516598777289
C         8.59720240851497   14.51422343759033   11.02789958785588
H         8.15073458536290   15.33650598766379   11.58027482207099
H         9.61920756401283   14.79241688837623   10.77998938439732
H         8.61745521266958   13.63444918348554   11.67560302331287
C         7.80032224466712   15.42966042887481    8.81387482803213
H         7.36445972586766   16.29521588205748    9.30473517808550
H         7.22349865949538   15.21808063574160    7.91683538757435
H         8.81624187874392   15.68110983943951    8.52004830128439

