60
CSD_code = RAQJEZ | q = 0 | S = 0 | Stoichiometry = C24H29ClO3P2Pt | MND = 4
Pt       12.25699872328140   14.42145880202126    5.93562967310829
P        12.80732230460617   14.96520148872534    3.82019852774783
P        10.32257853526521   13.53134561753897    3.47714360755521
Cl       11.41262162697727   13.80099247660493    7.89658465390585
C        12.01144119822481   13.63653892271760    2.76764032147663
H        11.96446584363881   13.92630517587028    1.71514270832003
O         9.77503784735611   12.04107576073681    3.31061535157461
O         9.50440301216026   14.41436663650986    2.40403306918657
C        11.92411635228218   16.44460119954977    3.24322914822200
C        14.46136160285585   15.03039852644749    3.06247575250418
C        12.74157118751162   12.34965304508325    2.95962429822926
O        10.13775589776698   13.93888644633467    4.87064669258697
C        13.49863466286296   11.79916046047955    1.93175739873545
H        13.54466873997717   12.29901223997116    0.97387041266462
C        11.64252525591918   16.74575522445417    1.91374275166911
H        11.96338587168674   16.08582948265762    1.11957048666445
C        13.39315932727377   10.52417356929650    4.38691089695627
H        13.35175333361937   10.03345031931137    5.34698405966002
C         8.15580633015905   14.74119042290004    2.74850622798350
H         7.71971683246788   13.91826410620808    3.32575080750293
H         7.62538673882486   14.83414007788315    1.79544939641236
C        12.69594217799681   11.70347392969344    4.19255812219698
H        12.11219513507763   12.12295685104454    5.00885996859691
C        10.94640233300664   17.89971572206791    1.60166682605361
H        10.72653104856996   18.13051853364373    0.56913920772792
C         9.71932675303559   11.38258528867033    2.04980983280435
H        10.58505299240512   10.71568203933870    1.97627199477625
H         9.77109932135465   12.12132566206537    1.24257216694054
C         8.42614246830300   10.58932008709976    1.96632688992575
H         7.56957373335073   11.25735820701057    2.01061785704632
H         8.36795015470750    9.89611403959591    2.80078826306604
H         8.39582243964438   10.03137800638036    1.03454910580178
C        10.52892012223197   18.75847801683141    2.60676387347784
H         9.98509589757427   19.65700730618653    2.35425943045703
C        10.80343990289725   18.46234938228426    3.93240708865351
H        10.47266391243480   19.12725465942226    4.71594272785926
C        11.49746456805218   17.30884501599257    4.24828473244121
H        11.71401439149408   17.05039302130508    5.28196148720912
C         8.07966145540590   16.03122989563622    3.54372755838698
H         8.52959479832122   16.84642659038724    2.98272395527609
H         8.61488187575438   15.91337795005555    4.48167860900718
H         7.04023286458091   16.26884379566015    3.75367061432164
C        14.19630768640242   10.62047580814978    2.13036109045063
H        14.78237124897668   10.20390320974271    1.32468540081576
C        14.14453108100271    9.98089148892574    3.35727701998919
H        14.69063185710677    9.06247371734653    3.51122218044981
C        14.87280925171975   16.00517966025246    2.16201034695824
H        14.20097541956861   16.80294473899026    1.88033547572622
C        16.15230905345226   15.96149869686122    1.63554938331609
H        16.46858307267005   16.72010658983849    0.93445547706941
C        17.02659647284447   14.95380395398244    2.00689645336733
H        18.02226574019805   14.92337629486678    1.58993635409344
C        16.62984198747668   13.99660819044369    2.92765506893720
H        17.31656820946359   13.22209756305767    3.23470258831169
C        15.35682080156709   14.04032313082514    3.46242453026791
H        15.04526920044772   13.31876688279398    4.20551893734165
C        14.03143133689694   14.86090533118062    6.84938228720216
H        14.72844332716737   15.36676421039836    6.17697925929564
H        14.47907930485866   13.92576399323832    7.19748399268071
H        13.84364537719935   15.49498253746453    7.71863759902424

