62
CSD_code = RAQJID | q = 0 | S = 0 | Stoichiometry = C25H29ClO4P2Pt | MND = 4
Pt        6.76798589703716   10.68863278048604    3.68140202327653
P         4.51035665361936   11.70485892373448    1.97040973271729
P         4.98364527021899   11.55816141384815    4.78648368870972
Cl        8.26401544119594    9.57534620072183    2.42688502373328
C         7.51083050998650   10.18684104091466    5.44464703207276
O         4.05165008370257   10.20050941058823    2.20714639665374
C         3.80007738199095   10.27970048450366    5.28170380695993
C         4.74946599442485   12.30427804074331    7.48567416629928
H         4.38762508864105   11.30313759766731    7.66095530833403
O         3.53781204347133   12.16883036364996    0.78229498661172
O         5.92991830327382   11.88214592902636    1.61491537641318
C         4.03100279137175   12.56064216077909    3.51783943499952
H         4.55498569675294   13.52343245450029    3.46839627453119
C         2.58249646043162   12.77230245201361    3.76179245327956
C         0.29397315859219   12.06035404197747    3.56739718793341
H        -0.43192223709794   11.34550381858916    3.20959578216020
C         4.67925029486988    9.18601674497345    1.40161676177861
H         5.66189502712278    8.95392019513417    1.83591279241790
H         4.82991383043104    9.56745699918351    0.38681038922478
C         4.13012847545670    8.95752792083364    5.00429097868677
H         5.09123219148393    8.74116208819660    4.54485947991862
C         2.15893131560961   13.88980750523869    4.47638113008589
H         2.88784203159594   14.60365783218247    4.83522377004206
C         5.62659919614670   13.96465550381362    5.98747436658458
H         5.95164797610408   14.25550348401734    4.99646485259967
C         1.70779451625408    9.55271966241152    6.20670198968990
H         0.76395064620467    9.78465858633978    6.67812709887675
C         4.90749064971553   13.18486032409654    8.54084292329530
H         4.64511282349603   12.87338045390804    9.54103662611202
C         2.03490379756748    8.23811170010919    5.91709933400402
H         1.34418771149511    7.44459907087846    6.16195290400751
O         6.76360399376665   10.12296280017012    6.39182113510827
C         3.78485956755532    7.96308006873738    1.39688481084637
H         4.26688258868818    7.16344184326193    0.84176416122369
H         2.83013034521495    8.19636894703639    0.93144083569616
H         3.60354538911430    7.63398248174185    2.41654882149632
C         5.08054846602234   12.69974463284297    6.19466233356725
C         1.63830823058051   11.85812303785056    3.31113792356685
H         1.96496464868544   10.99128309333492    2.75963637283903
C         3.25102892791788    7.93956615797171    5.32352231330006
H         3.51243371959986    6.91236670248708    5.11464165791455
C         2.58725271622826   10.57481813277058    5.89725814189990
H         2.33324399857626   11.59645990544806    6.14093639900947
C         3.94927409845142   13.20138361860703   -0.10342447573092
H         3.30928534204503   13.09749031155784   -0.98347766216507
H         4.99333397501810   13.03616873835622   -0.38738897758600
C         5.40926413937323   14.45687870381552    8.32198206378633
H         5.52961898865942   15.14197618702777    9.14798719444402
C         5.77953257698846   14.84257401752328    7.04348886568554
H         6.19710612672174   15.82425542084477    6.87320703084832
C         0.81484068124074   14.08527379069539    4.73667217095179
H         0.49846789455642   14.95417784594922    5.29469572896972
C        -0.12128685829101   13.17098023131439    4.28249169024267
H        -1.17054890854157   13.32576201853111    4.48488796619860
C         8.99380039627969    9.98085908033952    5.53416352594903
H         9.28870201123841    9.82703905823844    6.57138392324194
H         9.50599799137979   10.84875605583156    5.11857579627611
H         9.27443649059759    9.12144173421597    4.92592824058720
C         3.79057379021720   14.57400373356488    0.52642253113774
H         3.97160336280428   15.34457580656614   -0.21809347596631
H         4.50856640290813   14.69255055194418    1.33505551705039
H         2.78522988525642   14.68994010640355    0.92565336762298

