65
CSD_code = RAQKIE | q = 1 | S = 0 | Stoichiometry = C29H29N4O2Pt(1+) | MND = 4
Pt       -0.53028808858469    1.85169440077640    0.18380503284742
O         1.04519454575588    6.50835427411619    9.89589359020425
O         4.59168180860932    2.90282468675564    9.93347562900567
N         1.13144938121008    1.51126245049082   -0.86081238757018
N        -1.34485215949954    1.31874762532893   -1.45719095292310
N        -2.43499799131867    2.03233200053652    0.74027797107426
N         3.09878474595859    4.34040956328893    7.77607105118718
C         2.40179329072978    1.64526544019529   -0.47423852925629
H         2.55126218763405    1.98034797962278    0.54416669731990
C         3.46911345893946    1.37721289357499   -1.30978846800445
H         4.47738080013350    1.50000609304434   -0.95084269578787
C         3.21862805680747    0.95096867122921   -2.60962366541857
H         4.02988998387981    0.73482836124700   -3.28624893695233
C         1.90669197907474    0.81025137584087   -3.02044541083630
H         1.67998044646343    0.48288174095523   -4.02195768577556
C         0.86952827518356    1.09362682598090   -2.13550057070853
C        -0.54677005552384    0.98093290068087   -2.48154633174924
C        -1.11629619223877    0.59036887322178   -3.68865323346227
H        -0.50554626285704    0.31192963695928   -4.53108604095345
C        -2.50250117927681    0.56569141771932   -3.79072457049988
H        -2.96291222755600    0.26615930772735   -4.71859890390308
C        -3.30251483130607    0.92270927060406   -2.71118510381735
H        -4.37567607099498    0.90076311228998   -2.80101776620963
C        -2.68480904901704    1.30462379693024   -1.52528665180540
C        -3.30399719550288    1.71158956006652   -0.26441805256324
C        -4.68053081047492    1.77202500931151   -0.06312129187187
H        -5.34996136712398    1.51468154910638   -0.86763272471821
C        -5.17910533142862    2.16013140351386    1.16600904315764
H        -6.24310630100157    2.21018526372420    1.33358835636578
C        -4.28228557652471    2.48209787814590    2.17882252555161
H        -4.63012526041321    2.78835963965957    3.15131535705462
C        -2.92642012442124    2.40436561412212    1.92395903744147
H        -2.19357203603483    2.64499652701157    2.68343829976591
C         0.30111937597872    2.40067511055520    1.86711280136020
C         0.81072693013485    2.74523642341975    2.92160324154074
C         1.38843663738741    3.14309569501964    4.13774764596537
C         0.61514079086989    3.74575925936616    5.14004060143918
H        -0.43744588650872    3.91283892675221    4.96305301167341
C         1.17494847459711    4.14094899746808    6.32781066803585
H         0.54268470263423    4.62146976646594    7.05517128951050
C         2.54657444812002    3.94632531054271    6.59611170540387
C         3.31440910254683    3.33315998858270    5.58389362672689
H         4.36256074426815    3.13656396755205    5.73911521210893
C         2.75303428338721    2.95054799429988    4.39165850944582
H         3.36744140458872    2.47829867294153    3.63879959449475
C         2.29475723817589    4.74800785159703    8.90379527788019
H         2.82060577344416    4.46862390015831    9.81809143561253
H         1.33789305869482    4.22364242101770    8.90607828779434
C         2.02016221646301    6.25956458177186    8.91552111730751
H         2.94330478354089    6.81706379403168    9.13935338894890
H         1.66390125845696    6.58890909044590    7.92493957895648
C         4.52331156429187    4.31132194435874    8.00857260477308
H         4.76506682750723    5.09082969803541    8.73381481941920
H         5.06137902739354    4.52801812454140    7.08454572602123
C         5.00102699962047    2.97316639826553    8.58901933718485
H         4.57408614996659    2.13410387222040    8.01805318868672
H         6.09884296368122    2.91384701409455    8.52261599487137
C         0.75849067216240    7.87485865845337   10.05994749105898
H         1.64856142246477    8.43330768018171   10.37309556100006
H        -0.00204315503372    7.93999884925163   10.83444928983007
H         0.37524305402971    8.31496651290164    9.13094690925862
C         4.97127477831340    1.70781435014976   10.56973481475585
H         4.52367478645811    0.83681460693375   10.07632382103879
H         4.60807722389499    1.77341206954502   11.59259216181002
H         6.06124149914999    1.59058332530197   10.57448866987649

