67
CSD_code = RAQKOM | q = 1 | S = 0 | Stoichiometry = C26H34N5PtSi(1+) | MND = 4
Pt        0.70725323323888    7.07488442747677   16.22153414962474
Si        0.96299286352501   -0.44810066217239   15.22645346033324
N         1.85733845992649    7.47676158145277   13.32215790159911
N         1.36767031198358    7.85728337987559   14.49548022058065
N         0.44070493355438    8.97421867310644   16.60486587620341
N        -0.04780313548932    6.93211528021458   18.07818308396901
N        -0.37410742256394    6.01524630930747   18.98339858452660
C        -0.53227435618585    3.35123367933068   11.93779715311001
H        -1.14434452155378    3.39372746884577   12.83505709441676
H        -0.39704587799852    2.30845897126486   11.66663232446651
H        -1.06233013310278    3.85097144511644   11.13058238164457
C         0.81828511211800    4.00802839711071   12.18948829910945
H         1.32126097973716    3.48509774611456   13.00342144346682
H         1.44015031107557    3.92213823995711   11.29668986234675
C         0.66007210089473    5.48071242567415   12.55970085896824
H        -0.02624933889178    5.56866661183758   13.40796147771657
H         0.24031380214918    6.03203086990549   11.71573847636620
C         2.00637723491927    6.09130889469563   12.96090513911965
H         2.40061310250514    5.55056267783993   13.82697265663045
H         2.71728481652766    6.02823494613965   12.13561731989025
C         2.09937820915080    8.54346355964744   12.54580051705203
H         2.49735083989829    8.44389954178746   11.55637390036330
C         1.75838295883039    9.67892342419010   13.25078606511455
H         1.83305503364454   10.69457770953114   12.92402156853291
C         1.29618344060766    9.21022824066662   14.48316278189273
C         0.78694475368240    9.86550512412047   15.67629030533982
C         0.63917650180785   11.22557609733667   15.92850813723818
H         0.91424835278033   11.95682940855029   15.18711866961165
C         0.12957107298347   11.60907449938622   17.16324341528929
H         0.00390645486769   12.65722126042578   17.38472286482094
C        -0.21681872926456   10.66038702869467   18.11770194099094
H        -0.60790716240137   10.95224269451351   19.07788853316186
C        -0.04248702122098    9.31748302836433   17.79867202779834
C        -0.31835873031311    8.14654381870064   18.61424182692131
C        -0.83004853192889    7.96873807908740   19.90076621803018
H        -1.14243454945084    8.72361402632909   20.59100533626343
C        -0.84748150580802    6.60137573122848   20.09200486479314
H        -1.16804400422806    6.04206199758914   20.94569162982879
C        -0.20161265775100    4.60872306719665   18.70334269055437
H         0.86223947484146    4.43098197289111   18.51059274894650
H        -0.73814098089277    4.38634642008393   17.77429900344118
C        -0.68723964586888    3.68414906417879   19.81059849575813
H        -1.74825243410436    3.85349400173752   20.00401526625683
H        -0.13101392698817    3.87047248774176   20.73117317702010
C        -0.48251518214001    2.22663476687038   19.39109987640228
H        -1.02387700759141    2.03758896646082   18.46269660687190
H         0.57646958469040    2.05369379643046   19.19255589094872
C        -0.96451328860513    1.26393150593905   20.46847632284455
H        -2.02392560087970    1.40743479065398   20.66675826316387
H        -0.41733502811563    1.41737493284990   21.39549635404098
H        -0.81437365058266    0.23650881498294   20.15005286524913
C         0.96941511481284    5.16382924200300   15.87721948908142
C         1.03041402024625    3.95335992930253   15.72490214526193
C         1.05788881039652    2.60680912944368   15.56590249381963
C         1.04446743687427    1.39852140369086   15.43461831249559
C        -0.25812089673511   -1.09345559199572   16.53962557050825
H        -1.24273255331899   -0.65166368755413   16.41803141837273
H         0.08428389388192   -0.86402525317816   17.54452271310920
H        -0.37226404856540   -2.17108638461341   16.47006357282043
C         2.70982206832494   -1.15109652839945   15.50052274822782
H         2.71513377219854   -2.23197356337150   15.39471112232217
H         3.08086451449764   -0.91717739640696   16.49393150526507
H         3.41716340841580   -0.74788846472867   14.78210142170443
C         0.33775468610489   -0.78421998556903   13.45934833029145
H         1.01361031931149   -0.37155429563927   12.71600020554199
H        -0.64157806635819   -0.34445039351515   13.29495779870677
H         0.25458800282462   -1.85038938175487   13.27044522338809

