81
CSD_code = RAQPOP | q = 1 | S = 0 | Stoichiometry = C36H38N2O2P2Re(1+) | MND = 6
Re        2.09741755189016    9.16671509276322    4.64592197935238
P         3.58954156979720   10.03895069101226    6.36576065169992
P         2.69571770687209   10.50534346550336    2.69767219609592
O         1.14289038891556    8.88295686814632    6.34144879098094
O         0.22138632166762    9.09802054289473    3.98000549756321
N         2.99989790240882    7.80274260237030    3.99461018498579
N         1.28158963984293   11.54253848490466    5.18406114546089
H         0.29234362470712   11.39039256339721    4.98336424204357
C         2.92388321762755   11.64308853536859    7.01207008840188
H         3.00478349267400   11.66380538984541    8.10111871793576
H         3.53391005551410   12.44978752173949    6.59866634020166
C         1.46015583468312   11.82386743947056    6.60571929682098
H         0.85351606620963   11.11393169701105    7.17170792523045
H         1.12788155058159   12.84185101707998    6.86035862144821
C         1.78370046106726   12.58571480377231    4.29749847683140
H         1.18779911587891   13.50776371683554    4.38376158740184
H         2.81113501648122   12.81530071047549    4.59209717391654
C         1.76651876581568   12.08919258906392    2.85461472644977
H         2.17429086013077   12.83277460980063    2.16512865353688
H         0.74088932173647   11.85931150085919    2.54842328145726
C         3.57515951966973    6.69231945922545    3.52153596120525
C         4.46767888264431    5.94186236212840    4.31304514243701
H         4.68276034829760    6.27956803644095    5.31591285800688
C         5.04428610152379    4.79663602947309    3.80771302028774
H         5.72133094826389    4.22577079811142    4.42473936835310
C         4.76031842668326    4.37428392917786    2.51653337340021
H         5.21468315131908    3.47561962500109    2.12997657859158
C         3.89075698339240    5.11048964195328    1.72316124748119
H         3.67083142194956    4.78406613994606    0.71813472154406
C         3.30208903643845    6.25752730914946    2.20853865302325
H         2.62296407569273    6.84288215971442    1.60688350844441
C        -0.20042012429895    8.57114240414977    6.26293636496029
H        -0.79651645245592    9.41656775956771    6.65069799392596
H        -0.41707669038930    7.69164941134850    6.88606168578437
C        -0.56892916527290    8.30079653837114    4.78723971637975
H        -0.39383620166531    7.23694867649953    4.55425972766062
H        -1.62631310007321    8.53310493652032    4.59750441017598
C         5.33329304823362   10.39096894471318    5.97370888936326
C         5.96195770753821    9.47657100688020    5.13307492404385
H         5.37148593585803    8.67818327487503    4.70182351337154
C         7.30854224230803    9.59752470224644    4.85073566945433
H         7.79157462699554    8.87610481452663    4.21017112465824
C         8.03618997345594   10.64514989388906    5.39230501139211
H         9.08765093826454   10.74528796531306    5.17194120769456
C         7.41436145704643   11.56219329936157    6.22205331666344
H         7.98082991359427   12.37660136585030    6.64785379101487
C         6.06915922792971   11.43405831215128    6.52285791624112
H         5.61083858759533   12.14798054994472    7.19134863815589
C         3.80052555988232    8.95839775031719    7.81230992066912
C         3.43963139400535    7.61798884312379    7.73865972124907
H         2.97361165490763    7.24357971254283    6.83743891697682
C         3.65025872131314    6.78463587736165    8.82295547063988
H         3.35978182683567    5.74629542105476    8.76717387193675
C         4.23012927608429    7.28100028313684    9.97877997352867
H         4.38986203954314    6.63171774977128   10.82585642851495
C         4.61066434843396    8.61201985727989   10.04714381785761
H         5.07227596684805    8.99729820137888   10.94369634310261
C         4.40409222835654    9.44983413988794    8.96692071951218
H         4.72309698055974   10.48152953844096    9.02225877530176
C         4.44823011261192   10.90661570299405    2.44928241101865
C         5.02554632468227   12.14145006713254    2.71561962661627
H         4.42778567495761   12.96429747302287    3.07787612738267
C         6.37886220581825   12.33320357995981    2.49303434663972
H         6.82293733688481   13.29580516808133    2.69655116491025
C         7.15852773363024   11.30175635201705    2.00004291103366
H         8.20964143560661   11.46200562111796    1.81689148111643
C         6.58790304278851   10.06506906148139    1.73795896372410
H         7.19365838597611    9.26129672563616    1.34835367705300
C         5.24285155656127    9.86351690060551    1.97339388207010
H         4.78415383175779    8.90210090414540    1.78237654753392
C         2.17119750798584    9.93384258849661    1.05635524013267
C         1.15373209171434    8.99013733974577    0.95538650107542
H         0.70934681337795    8.59926617313915    1.86032076109889
C         0.71817862838826    8.57769142629451   -0.29192413153507
H        -0.07038902247002    7.84466384620693   -0.37151804693807
C         1.29342636724764    9.10466545359436   -1.43720480832359
H         0.95419661827637    8.78120713918564   -2.40930289720949
C         2.30324425643720   10.04921006788694   -1.33748052316088
H         2.74720849336516   10.46192747775331   -2.23054809934298
C         2.74537832789793   10.46672904122545   -0.09537840544931
H         3.53695299468514   11.19853532713584   -0.01743860027555

