81
CSD_code = RAQSOT | q = 0 | S = 0 | Stoichiometry = C38H36Cl2N2P2Ru | MND = 6
Ru        3.52009650246915   -1.74869134025982    7.09679744781721
Cl        3.34411215561836   -3.22634167279017    8.99286552678093
Cl        3.78475710286169   -1.08765881551257    4.79646728766149
P         1.72091593707988   -0.36265705293930    7.22486565075321
P         4.94540037712868   -0.41641040325241    8.27946589831389
N         2.19704193385841   -3.25216015519320    6.10620454733037
H         2.13138054939692   -2.81979340201253    5.17700086824969
H         2.66487089075108   -4.15724938331575    6.03136309359841
N         5.23704348867593   -3.11140479373986    6.68360357865056
H         5.27997425786602   -3.59475334420949    7.58901005265114
H         4.99387342077350   -3.77775499734642    5.94828208963605
C         0.36627412073341   -1.05493441850792    6.15178980122791
H        -0.48689948184351   -0.37247189114192    6.14552368532797
H         0.76383536518616   -1.15354600863562    5.13660945646689
C         6.48279257651653   -1.41439790943528    8.62027060223228
H         7.15246277572524   -0.85813956049228    9.27975521532843
H         6.17147654149704   -2.34000484894500    9.11459662864604
C         0.01201430205475   -2.37169383160844    6.75998367170192
C        -1.18263231368821   -2.54940087815643    7.44409181149372
H        -1.89249934974335   -1.73524811159484    7.47744449247900
C        -1.46755102048610   -3.73979631492761    8.08751116126803
H        -2.40097003900474   -3.85593589327353    8.61672823037008
C        -0.54702155958125   -4.77293023141072    8.06267623383508
H        -0.75495604965661   -5.70139432487906    8.57221178129528
C         0.64807269618589   -4.61460315186770    7.38736733216896
H         1.37695326895046   -5.41350299321903    7.38600942168829
C         0.94103208749578   -3.41930439614424    6.74153314120338
C         7.10132331703997   -1.64877917157486    7.28195772121394
C         8.26096176431903   -0.98740475573955    6.90102445299094
H         8.76054315913446   -0.35164510752568    7.61785850714797
C         8.77395640554970   -1.12111859601544    5.62396305173200
H         9.67561847036645   -0.59594001896782    5.34815439294296
C         8.11930950615392   -1.91572509466989    4.69913358474542
H         8.50382937202560   -2.01466342177710    3.69551203980690
C         6.96539051821359   -2.58470970818583    5.06032379940071
H         6.44296640439595   -3.19095980876349    4.33301142936093
C         6.44649907835686   -2.45517700188000    6.34300563325292
C         0.76411910982032   -0.05180626305913    8.74353116141005
C        -0.29024409418387    0.85805207994933    8.74975785439384
H        -0.52350270749947    1.41931478064124    7.85421250591185
C        -1.02515080088512    1.05503397307617    9.90237895847289
H        -1.84209951212001    1.76278390720388    9.90558555503294
C        -0.71548883383782    0.34841420677178   11.05500217756098
H        -1.29178600310119    0.50911165617869   11.95471486324596
C         0.32808500067824   -0.55980412027947   11.05067554327824
H         0.57125390185208   -1.11343156402134   11.94536112169587
C         1.06457308482426   -0.76193046588205    9.89664635125950
H         1.87656511381504   -1.47261481315117    9.88395212892967
C         1.93004079168797    1.32478709552760    6.57399611225426
C         1.96094861920351    1.58055287165520    5.20679983942261
H         1.79208207089776    0.78266920943833    4.50028614494214
C         2.24317914853360    2.85400156094926    4.74568353966719
H         2.26821697104263    3.04354660545418    3.68229886235428
C         2.50317335864975    3.87986520880897    5.63847284592632
H         2.73277534288243    4.87062188102404    5.27416899163024
C         2.46705656558928    3.63297852799208    7.00104485908021
H         2.66472664924315    4.43177412428852    7.70173812501872
C         2.18116492043600    2.36370982014777    7.46640926574013
H         2.13799713503450    2.16544289653646    8.52829940297534
C         5.72069351978419    1.09776455494853    7.62443063402640
C         6.64211758482873    1.81289883805726    8.38629284148456
H         6.86870950875166    1.49717903919119    9.39629139745142
C         7.25261682920149    2.93444188634267    7.86055117210915
H         7.96752568614570    3.48634947019369    8.45450090662172
C         6.94916047754837    3.35395989554026    6.57384568159466
H         7.42932721858941    4.23252508078846    6.16767537560865
C         6.03340400003014    2.64778351279284    5.81478792254988
H         5.79273082447170    2.97045939076134    4.81271378028874
C         5.42248988891506    1.52127313708214    6.33764885885569
H         4.71257457705584    0.96358236104559    5.74681899745330
C         4.45524608062351    0.11588142192871    9.95326778937341
C         4.08748013922313    1.43669694226990   10.19532228373397
H         4.18393299496947    2.16904253720801    9.40635495041388
C         3.61941207839395    1.81549676905614   11.43994471415126
H         3.33235095577549    2.84261961184451   11.61534551969072
C         3.51733972694027    0.88301698794663   12.45854496684453
H         3.14621704960536    1.17986460653890   13.42868570486919
C         3.89554978223504   -0.42908624861423   12.22926795676683
H         3.82279879639604   -1.15953755827152   13.02192673115557
C         4.35932350934177   -0.81412666134690   10.98462108530946
H         4.62016440623588   -1.84615594462258   10.80647119871431

