82
CSD_code = RAQSEJ | q = 0 | S = 0 | Stoichiometry = C39H36Cl2N2P2Ru | MND = 6
Ru        9.33915038992794   10.62956350933051   14.26254717425005
Cl        9.31231990174992    9.07526324018711   16.08898942787708
Cl        7.71206031004142   12.05946736241190   15.26988315050096
N        10.81040079959596    9.56492822201532   13.72800133911126
C        11.68735042098860    8.81614152084214   13.76151955657489
C        12.78162291299850    7.88798521643905   13.73401251085006
H        12.76906481774021    7.29005849523739   14.64539266386429
H        13.72659605932640    8.42840682689991   13.66875490017431
H        12.67876880816782    7.22799077778468   12.87190147119035
P         9.53597936737115   12.38179029025210   12.78580412220287
C        10.29085879098830   13.78742067713185   13.75579314281982
H        10.33043845241895   14.68427076193703   13.13317191246020
H         9.64555255462820   13.97128370764232   14.62058218986959
C        11.66103785491844   13.33650425795367   14.14607097821404
C        12.79342390838268   13.86397748953462   13.54126256544640
H        12.68200481150422   14.66538741446292   12.82507164488893
C        14.05396806772249   13.37489152410618   13.83378842041052
H        14.92135409233560   13.80084451315569   13.35325217399821
C        14.19831228577035   12.33299323217389   14.73399640826390
H        15.17907695891859   11.94256700484890   14.96117118157269
C        13.08361685536910   11.79348019032578   15.34777655068251
H        13.18592909915099   10.97463850775420   16.04686853896042
C        11.81447297980655   12.28554728070830   15.06273879584493
N        10.67551428245124   11.69252431700910   15.63811911267296
H        10.00419141094439   12.36309932391754   16.03300953922698
H        10.89909231619348   10.99195498734967   16.35409889328955
C        10.70143157824145   12.42262834445183   11.37563541604362
C        11.52917350413202   11.34075892571375   11.11487345696220
H        11.43344190495713   10.44891645986827   11.71590411630484
C        12.45887322360601   11.39997632128409   10.09066497091168
H        13.09838096858034   10.55117954187288    9.89546527625848
C        12.56854738301867   12.54347373542676    9.31963042704502
H        13.29552364405914   12.59337313996261    8.52227343501499
C        11.73822967855710   13.62549625262215    9.56877782986752
H        11.81700021065904   14.51698886472757    8.96321867651157
C        10.80941873091662   13.56712879752044   10.58938214088738
H        10.15409216765980   14.40856393053671   10.77008121438527
C         8.09006525438945   13.15614220950741   11.99987434775885
C         7.30536144731453   14.09787211345346   12.65506154712300
H         7.53726663228288   14.38457480513545   13.66927957072041
C         6.20862017063566   14.64740059613156   12.01465548686124
H         5.60345021970478   15.38126118691755   12.52680350616677
C         5.88533921597449   14.26154719444570   10.72509385946144
H         5.03208068397062   14.69803554779152   10.22685553679202
C         6.65219303072588   13.30717864650864   10.07583794872130
H         6.39535451356329   12.99409769242095    9.07442083840034
C         7.74419659194897   12.75159211250089   10.71203704917892
H         8.34446019201456   12.00415039785528   10.20943689195990
P         7.81417350892004    9.32181001750383   13.15856674467099
C         8.77034755805039    8.14304602249505   12.16260227828414
C         9.34062220157297    8.59379518219187   10.97373892657444
H         9.09911834741660    9.58762600948469   10.61755516267459
C        10.21554135428657    7.78877601376897   10.26971962864593
H        10.64740811647312    8.14155435056902    9.34392308954309
C        10.54638971270322    6.53393670276343   10.75830916533477
H        11.22888160475390    5.90260948449706   10.20708235373521
C        10.01379591152120    6.09663223138129   11.96056067627767
H        10.28878823680712    5.12747657685142   12.35219670973184
C         9.13617955112231    6.89953032277998   12.66782202494059
H         8.74031253326982    6.57236864601370   13.61926358759711
C         6.53749507864274    9.98333248826097   12.03366328781167
C         5.73067683638913   10.99011661515331   12.55790068757987
H         5.95768349773824   11.39711004204386   13.53381142361428
C         4.65207741866603   11.46507279230986   11.83831045132487
H         4.02763440752555   12.24157554453911   12.25429437881186
C         4.37189106152434   10.94156962591559   10.58653934368741
H         3.52903944067036   11.31133606457189   10.02082055325376
C         5.16832929891225    9.93722779113501   10.06397266918004
H         4.94553715010685    9.52172581264349    9.09131751276422
C         6.24310490008019    9.44847939376671   10.78610903953004
H         6.84565734825935    8.64967250005849   10.37772797095564
C         6.65903462716666    8.30237551605870   14.13070722594153
C         6.09889525679465    7.15446974781482   13.57527379141964
H         6.39553335350013    6.83420166450061   12.58522134844981
C         5.16863267793325    6.42655403805019   14.29195241406415
H         4.74432043616630    5.52890084268507   13.86476057626061
C         4.77772833671167    6.84695873037599   15.55392848339136
H         4.05429652681416    6.27095828725991   16.11288732810128
C         5.30754653761754    8.00654587783475   16.09272019173877
H         4.99599265906343    8.34180804295887   17.07092636764421
C         6.24159393804954    8.73911560159142   15.38168151980819
H         6.65898111835384    9.64151395215418   15.80539117811241

