71
CSD_code = RAQSUA | q = 0 | S = 0 | Stoichiometry = C20H44Cl3MoNP2 | MND = 6
C         7.37194071278713    8.48866085110155    3.69560621275655
H         7.06577436503857    8.34483271092186    2.64867929758867
H         7.94745326267740    9.43014700430192    3.73659255926039
C         6.13189595277942    8.63244673955250    4.59086574301795
H         5.26984195349990    8.97094058318099    4.01063631676992
H         6.34465318849459    9.36884304697958    5.37067678413988
C         4.69742217810176    6.06856186444228    4.31675661253757
C         5.42922865853798    6.01856201478072    2.97276626494752
H         4.93969524379292    5.29470908985490    2.32232120908462
H         6.45828410139844    5.69399317575351    3.10944096827853
H         5.40477680379765    6.98341105384366    2.47114369264952
C         3.31007741011443    6.66030025364626    4.06718202242073
H         3.36453240113164    7.70503066450993    3.76674267844602
H         2.66278683868753    6.56874643397974    4.93446765086304
H         2.84080859594570    6.10767575602179    3.25321421449606
C         4.56253193941473    4.63564385132902    4.83677329251603
H         4.12671714673122    4.00788198983841    4.06052848059611
H         3.92433661795054    4.56961262675673    5.71140266112325
H         5.53991378715118    4.22709989134466    5.08209067997568
C         4.74990655053207    7.64285728980086    6.97484319902150
C         3.74048860775425    8.74104719750379    6.63534587000643
H         4.24222800924910    9.64177881691180    6.29151013445564
H         3.18924818725169    8.99558660965688    7.54023183385659
H         3.02012183339821    8.43567559433871    5.88622659619159
C         5.68982104699400    8.20014313645595    8.04543043146235
H         6.23114065149471    9.07556093088544    7.69620291421200
H         6.41518408520684    7.45158879500743    8.36709530905556
H         5.10823107686438    8.49589299732902    8.91840533667419
C         4.04642970908359    6.42776067136129    7.58352090929642
H         3.20056683616116    6.10309717024340    6.98439261701482
H         3.66952599245303    6.68038019302920    8.57431835523609
H         4.74941242306831    5.60029051333485    7.69162601866875
C         9.12085013698066    7.04553922491950    2.99502910980597
H         9.44143033938092    7.96423945329124    2.48153503970285
H         8.55158250244832    6.44817857542383    2.26126364809370
C        10.34856271806003    6.23625951914004    3.43952116123851
H        11.22123082515567    6.48671742975336    2.83113687115853
H        10.12911508470473    5.17151960877608    3.32196918343953
C        11.76922748052778    7.99496985836416    5.33522180277649
C        11.05674403248260    9.10075307575593    4.55166754192157
H        11.09628341861666    8.91702840394369    3.48029255358173
H        11.54983748332478   10.05312806155952    4.74277815816261
H        10.02322451548818    9.19501544661359    4.87715639746100
C        13.16418681521805    7.82552530507449    4.73303062076728
H        13.12135680871724    7.43304932924852    3.71873425410942
H        13.79819862294627    7.18570786575237    5.33982098830855
H        13.64132244638833    8.80450310504892    4.68726924553965
C        11.88659934441857    8.44744713898061    6.79236249380624
H        12.33742683876708    9.43842620860465    6.82886133635289
H        12.50434198639392    7.78188789157323    7.38563742183461
H        10.90218931109875    8.51508087648997    7.24913494331215
C        11.69000466523750    4.92636592925221    5.68783296173734
C        12.71027618131959    4.52475757726352    4.62103677601701
H        12.21825004560163    4.25512793657903    3.69009657367203
H        13.25212976876356    3.64752829031546    4.97382419325167
H        13.43773540259329    5.30155317630611    4.41873064899907
C        12.37833338032025    5.17100480720922    7.03253591226774
H        12.74415856275841    4.22641525775033    7.43441112334069
H        11.66900502855501    5.58916633251883    7.74846377383688
H        13.22980499135107    5.83906419885258    6.93996115144302
C        10.73863299457842    3.74386387380236    5.87964548069611
H        10.20765107543451    3.49592907123007    4.96427133977769
H        10.00424273893659    3.94636902241160    6.66043786394870
H        11.30972743932987    2.86567760717097    6.18035400778648
N         8.23963038379956    7.39657104202784    4.09168258944501
P         5.80815880274865    7.06481446431721    5.50085300975032
P        10.64843648256854    6.45748702704737    5.24274905228771
Cl        8.20740360427257    5.60641577846988    7.69909479505991
Cl        8.53253344029823    8.83017441829900    6.81583906035622
Cl        7.91798197982628    4.36189706064799    4.59364999346879
Mo        8.22451615305848    6.55768123219032    5.78197005489183

