32
CSD_code = RAQSAF | q = -1 | S = 0 | Stoichiometry = C14H10N2O5V(1-) | MND = 5
V        10.65457831047694   11.98398962801240    7.52329733255008
O         9.38362562036742   11.16101392580205    7.22897399629511
O        11.41166270377498   11.49086943134652    8.76890894983923
O        10.03757167336106   13.53566649507765    8.22962347454292
C         9.24709101995709   14.46099860367939    7.82004005094234
N        10.76577811983368   13.23785634015185    5.77322732604634
N        11.48429209276822   12.67437607117636    4.77199018236138
C        12.02829201549059   11.54015405053636    5.17763820529708
C        12.80588456245581   10.76746516494063    4.18304561300092
C        12.99087040068283   11.21770452454553    2.86385039527871
C        13.73389877197136   10.43296484123102    1.98131097603037
H        13.86852685474302   10.79107198845728    0.97151916213548
O        12.48239454743050   12.37686399485391    2.41439562500376
H        11.97264112035963   12.77668048738354    3.17332055066317
C        13.36068981567319    9.55187659324653    4.57573880543401
H        13.19323327718822    9.23333898931926    5.59482529291272
C        14.09209290095741    8.78540925561255    3.69131095661723
H        14.51584931524707    7.84377542371815    4.00848052368693
C        14.27743536084699    9.23223960927071    2.39096986447792
H        14.84868504603804    8.63904061372363    1.68997848966465
O        11.91615004383710   11.11256245792726    6.35911442505848
C        10.01595542856436   14.24091945126975    5.48530467267482
H         9.98061662408290   14.60203718090152    4.45011359908001
C         9.20049047132769   14.89280465549248    6.45930780890205
C         8.35587185656651   15.94510972086102    6.08963377822142
H         8.33875932361147   16.25476961571186    5.05193941994819
C         7.55544796939211   16.57749373885850    7.01209857632808
H         6.90478711923832   17.38626006259862    6.71031004562673
C         7.58800336033794   16.16315044671354    8.34347583996490
H         6.95679114608560   16.65692844813190    9.07086824113743
C         8.41069354525773   15.13808747677406    8.74034855756597
H         8.44113958207634   14.80962071266907    9.76983926270787

