69
CSD_code = RAQXUC | q = 0 | S = 0 | Stoichiometry = C21H36B10NRh | MND = 11
Rh       10.78777242082470    1.63735945093669   14.41023644405148
C         9.74277059881253    0.04499042152974   15.38943712796526
B         9.29418941959804    0.26456674510829   13.73900980117897
B         8.79231307131097    1.98392196116928   13.53034363224999
B         9.00421067028761    2.78230323057585   15.10036789375056
B         9.62995734959891    1.53278227333341   16.22234197115683
B         8.41699175139455    0.27232808064185   16.44959404965911
B         8.22270016228804   -0.52438092856538   14.90183123840762
B         7.60762486694760    0.67090471364107   13.73704027625823
B         7.40767674746207    2.22809657420101   14.59772516958945
B         7.94665027763989    1.97637406515713   16.28030909730012
B         7.04000535801556    0.70285469487319   15.42647386480954
N        10.90886841588950   -0.69133718267063   15.75225742768979
C        11.18210633364629   -2.12076569458481   15.59976869689644
C        10.30145423377133   -2.96587795625714   16.53404511982171
C        11.01668463332112   -2.58326381717366   14.15386521991154
C        12.65358131792695   -2.29915703544775   16.00335246920856
C        13.81216225273330    1.11050580782663   14.03321207237136
C        13.03995223663073    1.14239023286487   12.87036923455691
C        12.15650352816592    2.19696174840543   12.62941109944611
C        12.03292764114595    3.26487108918832   13.54868490248966
C        12.58710184821031    3.05202059091965   14.83231044504478
C        13.47947929189529    2.00035245353443   15.05594475193776
C        15.08895343022298    0.32030421992472   14.08853029775831
C        16.25891400378417    1.08397959074509   13.36097609075162
C        11.64322324558013    4.64185578068084   13.08381229756669
C        12.90517337721980    5.53166007156692   12.79037190041160
C        15.83213461756086    2.48368224886879   13.02765143610088
C        15.23802083147630    2.76636569236381   11.80243455560495
C        14.40710958386047    3.86077327015556   11.66031543713556
C        14.14813847254304    4.69181754744037   12.74437342121862
C        14.95546102937642    4.55870490932806   13.86866229721629
C        15.79121834218965    3.46736345272575   14.00895513958699
H         9.84254519913202   -0.34843471848645   12.88911778809921
H         8.93785706620132    2.53803117297057   12.49559178701997
H         9.31007805977535    3.91903017577426   15.21172672552135
H        10.42426698106925    1.73240118637036   17.08591853245665
H         8.43623800916184   -0.34077664878265   17.45732032683864
H         8.03631403270258   -1.68444592500759   14.81397886338359
H         6.91515082266548    0.35535495597850   12.83582521176741
H         6.56743674621895    3.00217720708467   14.30553073777328
H         7.51261081481776    2.58885124580084   17.18957695130498
H         5.93910988502929    0.40091434527877   15.72155078255153
H        10.57028011542163   -4.01646977720136   16.45576389513489
H         9.25239584977561   -2.85593930770918   16.27865817042286
H        10.43619150477844   -2.65300515455135   17.56794934019175
H         9.97699502740741   -2.55004475877571   13.84765996381495
H        11.37244905958910   -3.60636761938556   14.05556096080134
H        11.59959650403864   -1.94701916215840   13.49254615908700
H        12.95968614923053   -3.33486282212434   15.88333408241382
H        12.80623864458441   -2.01839173869654   17.04388927711795
H        13.28716115866402   -1.67207391226079   15.38130720854052
H        13.21851749478463    0.41320292280673   12.09193697383115
H        11.71518621157984    2.29415832570166   11.64490165042373
H        12.48386961483037    3.82308138771237   15.58616292843817
H        14.00369169510175    1.94497856302845   16.00034210415699
H        14.96018772557160   -0.65159715117938   13.60968448160879
H        15.36985004984398    0.15379178850875   15.12927489084093
H        17.13304465830416    1.08833949685795   14.01236684500599
H        16.51776102397674    0.55045373606328   12.44621178588664
H        11.03365885023365    5.13909657350916   13.83763275543088
H        11.04676581544001    4.55371565481128   12.17613341054316
H        12.75151289388165    6.05015944830616   11.84351476019151
H        13.00405860242036    6.28142537183096   13.57577659497721
H        15.34915103272775    2.07173093341711   10.98208266537309
H        13.87678300369580    4.01270103293978   10.73149910461061
H        14.85809838349561    5.26223558111469   14.68310270652982
H        16.33769883249590    3.32670867234982   14.93048187603709
H        11.22043112001328   -0.41181938484515   16.67617282274567

