41
CSD_code = RAQXAI | q = 0 | S = 0 | Stoichiometry = C17H20N2SZr | MND = 13
Zr        6.65642083834403    3.83416082937738    0.92195534098676
S         5.90079220396543    3.08376244882737   -1.47937599166159
N         4.96797513082295    2.04347814945088    0.71297182293769
N         4.03475735099561    1.25104425427462   -1.33779893651641
C         4.86638988218418    2.02604024585209   -0.64586578108007
C         3.25077846263113    0.42120364397229   -0.68007883272122
C         3.29676092725901    0.35129659857406    0.71450136768358
C         4.17916564270440    1.19053090261162    1.37857477652491
C         2.32717882223785   -0.43372138497064   -1.48148719555449
C         4.28173943593622    1.13962678588098    2.87234973371544
C         7.90801362080882    5.14863509858784   -0.39554479561879
C         4.63638031399466    5.41712435236667    0.86996732640413
C         5.75855399163748    6.20319627872285    1.20301479621925
C         6.23009080739189    5.78355001425054    2.46611932329544
C         5.37885295670765    4.75470803854100    2.92632263189641
C         4.38968974842271    4.53734594763194    1.94275525746031
C         7.63256497914804    1.57075620370930    1.61168743308138
C         7.49402282799877    2.30962387390698    2.80719601544865
C         8.39172656205479    3.39663916722079    2.75417482458953
C         9.08075260181673    3.33239398677656    1.52756539284364
C         8.59940260472927    2.21112112225643    0.81239810405299
H         2.66517644056873   -0.33120578624840    1.25958467078277
H         2.59220919898147   -1.48276669631123   -1.35805661265469
H         2.40411249630478   -0.16447295805404   -2.53023378808724
H         1.30162828444437   -0.30196161149322   -1.14130427491628
H         5.00682638260820    0.37595967214594    3.15604979733933
H         3.32156931896124    0.86945470651913    3.30615706336860
H         4.60838756503212    2.09736754175804    3.27095225323546
H         8.50840111668149    5.89327955146835    0.14933679264395
H         7.27142375938457    5.69152990951952   -1.11019947145824
H         8.59693679901746    4.54297008800560   -1.00327433255364
H         4.00375328565455    5.55206552616762    0.00064235865444
H         6.10918270172692    7.06615130399207    0.65327415371076
H         7.00713290098021    6.27282750941252    3.04178777039642
H         5.38733596850356    4.33925525804902    3.92783108730616
H         3.50360565142142    3.92464584114510    2.05189633766880
H         7.18212270755275    0.60838259677335    1.39867401716820
H         6.95072239515180    1.99616558595475    3.68890627244307
H         8.61705620378603    4.07041271759825    3.57184109814079
H         9.92514303285360    3.94697266489317    1.24505681916681
H         8.99286407859332    1.83985002088444   -0.12682462634146

