77
CSD_code = RAQXIS | q = 0 | S = 0 | Stoichiometry = C33H36N4O3Zn | MND = 5
Zn       -0.78967774364811    0.68866307482321    3.42629944752528
N        -3.08119787631996    2.25873720773224    3.61263867265665
N        -2.72100718347513    0.94896586231028    3.56111358338957
O        -1.56150085411714    5.33079918905311    4.03350088352937
O        -0.83408053148667    2.70371083292368    3.37918636222042
O        -1.04043522166292   -1.23055867446372    3.44609474664122
C        -6.40566364390764    5.44827067210616    2.56569154051809
C        -5.46353389818404    5.12442711695720    1.59803996302655
H        -5.75813374688700    5.10867624853631    0.55764137073299
C        -4.15630363853467    4.81919716263681    1.93824988413176
C        -3.78275893488689    4.85072842773623    3.28250337306425
C        -4.71055565526675    5.17696992588064    4.27002604596472
C        -6.01418950179815    5.46717163098191    3.89535477233051
H        -6.73845546847624    5.71451217500813    4.65923820815500
C        -2.37947334171498    4.52151163141840    3.65481617649445
C        -2.04769124914786    3.05680537940702    3.52681928907695
C        -3.14396885414153    4.47789582033024    0.88598569543190
H        -3.56710694755997    4.58610390251626   -0.11018207412452
H        -2.80745045120569    3.44869799685742    1.01211484498258
H        -2.27153488207253    5.12502439180650    0.97022618671952
C        -7.81814066005345    5.75709134789463    2.16790083006472
H        -8.31177909965254    4.85498119688629    1.80644267363345
H        -7.83818939325769    6.49169856538805    1.36454467191574
H        -8.38492754638367    6.14437683511099    3.01079458252432
C        -4.30208429066626    5.17759678215379    5.71145319493373
H        -5.11728817179325    5.51489530169495    6.34716395965906
H        -3.44282234734279    5.82838401965495    5.86286220674256
H        -4.01407211164113    4.17031615292692    6.01202937351825
C        -3.65782663106001    0.05869886422170    3.58624751384973
H        -4.68917149974735    0.41184595638642    3.64089484045787
C        -3.43657030466172   -1.34595562086149    3.53302740105774
C        -2.13319289560164   -1.92438770410981    3.45879742087305
C        -2.04003689747437   -3.34706976776163    3.38949270853135
C        -3.17797627930502   -4.11711330999339    3.37962333702046
H        -3.09449657713485   -5.19226898945710    3.30892374441790
C        -4.44815956814468   -3.54506454165012    3.45977459934711
H        -5.32462732866298   -4.17554503296637    3.45723833434044
C        -4.56670301748479   -2.18338136441108    3.53765862217750
H        -5.54364642984979   -1.72391935718581    3.59788995169503
C        -0.66467781258874   -3.96845232198586    3.28709148817982
H         0.06149433284121   -3.16235410442867    3.43966271334153
C        -0.45922620073902   -4.53098974297581    1.87064912932544
H        -1.04361524942921   -5.44619937432446    1.75555293639052
H        -0.84871129819732   -3.80277166940349    1.15403312974048
C         1.00205060135116   -4.81456679377608    1.53965268994205
H         1.09927665515796   -5.13069208730481    0.50283657326398
H         1.40173790151929   -5.60501722539395    2.16980803913512
H         1.60730564698191   -3.92132249357594    1.68554425130575
C        -0.43537591731524   -5.02920319072351    4.36961816491494
H        -1.15604034860452   -5.84018146610209    4.24990868858500
H         0.56312409190674   -5.45497445927666    4.25093643532714
C        -0.56223888677291   -4.44511004063370    5.77154499614957
H        -0.42763531222084   -5.22041152224494    6.52319742558588
H        -1.54345557537464   -3.99609276648237    5.90767901327680
H         0.19036468918844   -3.67559191489134    5.93380692052180
N         0.52129758611045    0.61188593666534    1.76477462236001
C         0.81197971338594   -0.55043259770259    1.19124010702906
H         0.32967622015307   -1.41465511862907    1.62238678731341
C         1.67343650485562   -0.65913081397364    0.11292220547514
H         1.87824812305662   -1.62539024933128   -0.32079685983491
C         2.25776260548110    0.49180424108526   -0.39204787069300
H         2.93390108067862    0.44558084807895   -1.23308869872480
C         1.95274743044895    1.70363420400661    0.20702788959614
H         2.38199364056747    2.62596312792704   -0.15132105276087
C         1.08014063137098    1.71628994647207    1.28264221922817
H         0.80787259692833    2.63484613400597    1.78075785964815
N         0.59659568240571    0.69912951054709    5.01760630889691
C         0.96959415286917   -0.44490827835810    5.57999114365986
H         0.52091325787480   -1.33360296260523    5.16187827245770
C         1.86635002394667   -0.50482243643515    6.63268519313802
H         2.14017664080511   -1.45729989481549    7.05892827498095
C         2.39716500035452    0.67775113935181    7.12404358060919
H         3.09824350282873    0.66934873556758    7.94566554389942
C         2.00536320929921    1.87044902970868    6.53773816120439
H         2.38864900428283    2.81618735030871    6.88676635225011
C         1.10351941359066    1.83391996301438    5.48699842217856
H         0.76552733541858    2.73709405015271    5.00016000387711

