85
CSD_code = RAQXIQ | q = 0 | S = 0 | Stoichiometry = C32H50Si2Ti | MND = 12
Ti        9.48389678561895    3.50944650961512    0.67728032161030
Si        5.71882415956457    3.26258525651985    2.96694155049923
Si        4.80010789346483    3.46471905000358   -2.91143509325745
C         8.68666606549333    3.42665679370134    2.55270182900541
C         7.33547609875244    3.42037730414919    1.99204276796925
C         7.43790347564438    3.48813062236192    0.64115310259131
C         6.52884733242741    3.47527953910141   -0.38083737436024
C         5.84917239062418    3.46688718786783   -1.40026953124825
C         9.00563224795014    3.42522486922798    3.84212728398080
C         5.73478317773845    1.68489868700066    4.05743122043131
C         5.43828543444412    4.79022603966201    4.09128220334577
C         4.23401105256037    3.12912626684781    1.77537065211300
C         2.97940859682877    3.78471080504288   -2.44497936367862
C         4.96133256788957    1.76809729298022   -3.77376588240489
C         5.41983724153360    4.83821354827412   -4.08692309893367
C         8.87661879245478    1.28900945356919    0.26917875929120
C         9.82110535618816    1.33472501061417    1.33351323398125
C        11.04780937599159    1.83520386377347    0.80344706025699
C        10.86819408637032    2.05913326759813   -0.58796634648287
C         9.51377021706250    1.77481656223102   -0.90324925538605
C         7.56997446353529    0.55533058114273    0.31735592583499
C         9.67628824495921    0.59425908407191    2.63070471146370
C        12.34184003332082    1.83342007133783    1.56499432637249
C        11.95539037341880    2.13361974147624   -1.62077195957927
C         8.91555229366879    1.72999388762495   -2.27841170297781
C        11.09947095846283    5.07228193119445   -0.04108439240353
C        10.80069999697931    5.31708101444499    1.32595543883832
C         9.44138986377631    5.72287735616372    1.41730203547600
C         8.88237788936790    5.67113120756264    0.10967080458675
C         9.90226022321360    5.24424102550330   -0.78650794457108
C        12.49905520139397    5.08617565493114   -0.58371078522451
C        11.81176247964701    5.41958989396070    2.42928560143040
C         8.78376768606305    6.39520941752134    2.58417507548835
C         7.59356682562161    6.32733753104225   -0.29097322567892
C         9.74584082640807    5.25390170701525   -2.27914462227867
H        10.03188332020730    3.41020507583109    4.18884220951055
H         8.25786655069022    3.43377134707517    4.62973136005795
H         5.71469150080279    0.78224534305891    3.45285073177105
H         4.86341624762560    1.66021625131222    4.70531767885285
H         6.61487886788183    1.63419586652250    4.69043859641442
H         6.28208190723415    4.97655247567924    4.74815923912162
H         4.56147785688821    4.64741881578113    4.71619159066149
H         5.27531242605718    5.68978131779325    3.50412418660270
H         3.30637430741855    3.02548220677604    2.33017130586364
H         4.14777552783715    4.00727745122894    1.14436139306021
H         4.32588327114987    2.27110024802229    1.11758238126435
H         2.86222313846212    4.75305997314729   -1.96776717660871
H         2.61726336087745    3.03303432732401   -1.75020351511288
H         2.33228180039908    3.76695020616778   -3.31759383683689
H         5.97841028910411    1.58631295755113   -4.10867138460944
H         4.31332153673307    1.70256769586024   -4.64325997497281
H         4.68898027754600    0.96060354018972   -3.10061092125333
H         5.36766993325210    5.81327584652167   -3.61124013143930
H         6.45217758216175    4.67199018233235   -4.38166961557804
H         4.82429411705865    4.88428602675774   -4.99431010221822
H         7.76139244748428   -0.51918672019540    0.24588611812511
H         7.04428603604667    0.74401184170516    1.25290139954001
H         6.92297359957939    0.84540738847826   -0.50767682236160
H         9.92577823665304   -0.45882091375617    2.46860698537409
H         8.65562394503642    0.64755361666122    3.00434342315416
H        10.34522986588632    0.98674031125716    3.39298394971186
H        12.69860245151474    0.80725581817204    1.68977063163790
H        12.20856996522943    2.26362496347488    2.55885466163823
H        13.11813400947245    2.39275211845041    1.04557738365462
H        12.05487807105342    1.14714260527080   -2.08307539204177
H        12.91702107995840    2.38776458351193   -1.18419166354922
H        11.73244710199534    2.84115583625974   -2.41715266837887
H         8.79732707248997    0.69077509852402   -2.59565131602502
H         7.92990618798430    2.19836498121835   -2.29260121887437
H         9.55401144251671    2.23126922154582   -3.00254198041946
H        12.90979341940476    6.09058307690236   -0.44444105162591
H        13.15901823200735    4.39483190995304   -0.06227247570643
H        12.52664133499817    4.86638049245078   -1.64703540088865
H        12.15655324359853    6.45337171103083    2.52138707250766
H        12.68050430932811    4.79420417881420    2.23166207899451
H        11.37898941595834    5.12635240931017    3.38474848204990
H         8.78961150855207    7.47697846114623    2.42403739995289
H         9.30819371540297    6.18260130641267    3.51258589601729
H         7.74806678653203    6.07410891423540    2.69109946234182
H         7.21576442740823    5.92920823315820   -1.23012864781156
H         7.76661125054059    7.40040264819262   -0.41696392141723
H         6.82673880349074    6.19703029986918    0.47141766798649
H         9.72194340530585    6.28491941574866   -2.64251410000472
H        10.57058291011858    4.74673029220444   -2.77626963919741
H         8.81092219662081    4.77404070992593   -2.57297365499420

