32
CSD_code = RAQYOZ | q = 0 | S = 0 | Stoichiometry = C14H8AuF5N4 | MND = 2
Au        4.20315054730696    0.21186619482115    4.68843659552321
F         1.65378661568217   -0.14157476635901    6.57182363272870
F        -0.45417466632728   -1.82053778212201    6.42778890541664
F        -0.64116343811126   -3.61621028834304    4.37309828636665
F         1.32327061370874   -3.69144222204383    2.46746690114746
F         3.42538522611797   -2.00354097587110    2.62524513487647
C         6.70735864855321    1.56914843392020    3.67899049960791
H         6.63405149479907    1.12261925034241    2.71120018712845
N         5.86418946100825    1.41460727372437    4.67917292908121
C         8.86868988662044    2.82988841169335    3.41097404474747
H         9.38327480718626    3.51105030984359    4.09306718401188
H         8.57888824342820    3.37072759389233    2.50591564012884
N         6.33691727390624    2.13731762921793    5.69091457651892
C         9.73000237050106    1.63708160547725    3.07213636928514
N         7.40633196013248    2.71260979699726    5.35886729683657
C         9.87342192000343    1.21307569021388    1.75886976964820
H         9.39239870742057    1.75903741219272    0.95986811575792
N         7.68114538344302    2.39018496677172    4.09810834907876
C        10.64035069284055    0.09740499274299    1.46906975332111
H        10.75164812816949   -0.22433390273648    0.44497199473045
C        11.25751105042617   -0.60449426949898    2.49015486364024
H        11.85190695826628   -1.47609975571992    2.26327901202481
C        11.11186039905438   -0.18767286321763    3.80319761607606
H        11.59168189837641   -0.73252901708038    4.60157683615757
C        10.35087770928981    0.92989558813203    4.09473700450021
H        10.23694795396887    1.25760115855743    5.11826857480432
C         2.62251356559120   -1.00922661571498    4.60647975706559
C         1.59811040802828   -1.01217929867444    5.54453815941563
C         0.50357767951594   -1.86742327939480    5.48912318286154
C         0.40421809072830   -2.78068424059930    4.44727366890272
C         1.40273090313349   -2.81621567723045    3.48258999280250
C         2.47463950723325   -1.93905135393281    3.58529516580522

