30
CSD_code = RAQYAL | q = 0 | S = 0 | Stoichiometry = C14H8AuF5N2 | MND = 2
Au        6.40865483849311    1.27678465686191    0.80695596673104
F         7.03199779659405    0.19259513879081    3.71527518401834
F         9.01234142223360   -1.37729188276403    4.66623755264943
F        10.94339608650614   -2.32646289617103    2.97499669587028
F        10.84780058958502   -1.67101303374112    0.31920167424353
F         8.86081241813747   -0.09806876186186   -0.61591385314278
N         4.92477331714925    2.47765964118766    0.06757074433676
C         3.90602528899068    2.99808074293751    0.70447502167515
H         3.70532005029531    2.83691504935302    1.74610350513810
N         3.12631632666648    3.76222687218487   -0.08190260734931
C         4.82968812196180    2.91647145161807   -1.23041541807145
C         5.63960205099314    2.67400276341281   -2.33386677842890
H         6.51111423454372    2.04531216584114   -2.24614188519242
C         5.27654531376712    3.26819028057814   -3.52328429368013
H         5.87967732581943    3.10444475009849   -4.40268939276417
C         4.14370024934765    4.08160572332750   -3.62450143850615
H         3.90187321888500    4.52491205239786   -4.57823637948229
C         3.32925501843013    4.33163502088570   -2.53958822925902
H         2.45623058995840    4.95989086706532   -2.62159858633026
C         3.68795600597366    3.73634050322198   -1.33811493395458
C         1.93990732508575    4.47356513871367    0.30022059922700
H         1.73023334035370    4.28926051855525    1.35195176181079
H         1.09080956705574    4.13801144405963   -0.29841665589408
H         2.07611388207803    5.54578989139474    0.14496909564579
C         7.86892079089036    0.10789497117081    1.51256885155399
C         7.96702920765303   -0.25679669241622    2.84917834421652
C         8.97618228138264   -1.06291408816433    3.36091254559583
C         9.95812954949349   -1.54669378438829    2.50616542436868
C         9.90600007897228   -1.21164853947243    1.15930879941327
C         8.87469371270273   -0.40169996467547    0.70107868555769

