117
CSD_code = RARDEU | q = 0 | S = 0 | Stoichiometry = C56H46N8NiO6 | MND = 6
Ni        6.00908469868833    2.03759044495686    5.57782306292179
C         3.96529401533181    6.05776269546893    3.65687621880155
C         3.31360412787380    6.19141161460588    2.64928625812398
N         5.12087222343068    4.17732650863439    6.55898840191272
C         6.18863977106647    4.88307981320680    6.92676430141615
H         6.72936241404518    4.48702973751306    7.77459477595781
C         6.60000389968699    6.03926768253126    6.26298329280112
O         7.69305644691367    6.77972784444749    6.58533690508557
C         5.85450654124360    6.47338308088064    5.16739699320691
H         6.17003722973970    7.34320801260653    4.61279439818966
C         4.72434965336947    5.75213042274698    4.80252297666504
C         4.38208735773812    4.62153071845596    5.55572048801466
H         3.49521120170203    4.05439078478333    5.31039064118170
C         8.50271018315756    6.34970123926603    7.65523561526688
H         7.95173563636916    6.35130908034925    8.60078256854909
H         9.31702289354988    7.07040246003638    7.71279290560521
H         8.91392010592055    5.35189343354210    7.47391037581396
N         1.02945253405379    6.40806430860193   -0.78025216189214
C         2.07048871682017    7.20663285533242   -0.52993452713116
N         2.40435031801479    8.09595007725161   -1.49308380805412
H         3.06303651110704    8.81549695612903   -1.25516727667895
H         1.74816222909354    8.24838689622394   -2.23742050000789
N         2.83127911337879    7.18716872681824    0.56175386269923
C         2.52745281655808    6.27032581363452    1.47748429264646
C         1.46623486625383    5.37583961743480    1.30646099513502
H         1.23500706899705    4.63849112735950    2.05782106895201
C         0.73099696335023    5.49308578169587    0.13264098587387
C        -0.42185905477334    4.58817582383231   -0.16545941593136
H        -1.11445524066480    5.08351419179207   -0.83995247704962
H        -0.93073663190755    4.29953880575531    0.75090733277813
H        -0.05675824668788    3.68654956837288   -0.65713012446584
C         7.47538142984434    3.85528492565535    3.96599189831971
O         6.45853342683090    3.12486091219124    4.12448944062447
C         8.63289686145582    3.79175925374704    4.75681725098194
H         9.49035353274118    4.38300339643935    4.49065248130279
C         8.67243258444365    2.97708162125674    5.89170041855475
O         7.68880052937075    2.32572026874964    6.34828286896684
C         7.38603221331737    4.84664615723847    2.86000103244645
C         6.44540343288085    4.62571988404314    1.85500611516738
H         5.85900648871017    3.72057813309140    1.89360481117468
C         6.26230640629825    5.54895005252495    0.84495332584023
H         5.52573634347111    5.37157346638065    0.07567473462292
C         7.01356686076184    6.71216019271129    0.82795540465456
H         6.86544073997219    7.44057629132506    0.04479931471131
C         7.94623750209700    6.94415347908361    1.82530992467678
H         8.52502787783305    7.85672762489170    1.82083905866439
C         8.13381383774096    6.02085245660746    2.83789471194637
H         8.83843615749478    6.23531475308161    3.62680671847417
C         9.92272587268137    2.88386222239073    6.69906271095866
C         9.80824708323662    2.47868181571687    8.02933320136602
H         8.82544278164605    2.24787491665944    8.41301183163546
C        10.92671301632154    2.36847821720325    8.83210488731045
H        10.82139316006593    2.06259086832822    9.86280398059450
C        12.18077774688818    2.64788511104486    8.31319314225863
H        13.05865244080767    2.56144793716539    8.93690103587731
C        12.30670495733819    3.03098211621139    6.98782317187370
H        13.28493642966756    3.23463056049437    6.57709996597473
C        11.18782550004075    3.15000715572174    6.18282112608822
H        11.30563316101143    3.42794845907059    5.14691072461904
C         8.03409231566264   -1.98801494508558    7.50888005476683
C         8.67875569270109   -2.12169793035206    8.52093452742705
N         6.89654388996529   -0.10478384255579    4.60158889459275
C         5.82996227237398   -0.80908128021751    4.22760476484253
H         5.29372471609712   -0.41141975724114    3.37767484105535
C         5.41423098921161   -1.96571417823133    4.88790339463284
O         4.32204102821267   -2.70473399554281    4.55930245435229
C         6.15364992534893   -2.40173771031686    5.98683810015846
H         5.83454138056542   -3.27196073058441    6.53876762072110
C         7.28226043767801   -1.68163554618584    6.35867859712965
C         7.62958591192257   -0.55066655402113    5.60833441123037
H         8.51552647924489    0.01551513790643    5.85910517240655
C         3.51803218389329   -2.27270902623579    3.48595797071127
H         4.07357716522931   -2.27393284070256    2.54308633154415
H         2.70321376300071   -2.99245794505496    3.42371091881659
H         3.10700736705788   -1.27464293313535    3.66632999857620
N        10.93517408704333   -2.33042945773796   11.96928903869721
C         9.90311498019740   -3.13685853107655   11.70760888750690
N         9.56854586240061   -4.03190715529633   12.66519645690116
H         8.91813645935954   -4.75619273354392   12.41927607853956
H        10.21959782678112   -4.18102145413093   13.41470398211836
N         9.15159869916893   -3.12034054374159   10.60943189879903
C         9.45531193724300   -2.19791319794100    9.69930567274702
C        10.50747330371594   -1.29518093460881    9.88217847967528
H        10.73887020742273   -0.55363957882006    9.13498928648011
C        11.23373676070466   -1.41012223231620   11.06178660570034
C        12.37680079287132   -0.49697533867714   11.37251242303772
H        13.06887248213129   -0.98997396845192   12.04925604171805
H        12.88961688523209   -0.19928415807581   10.46123309407245
H        12.00060597852026    0.39883338042020   11.86650602955031
C         4.54121389934446    0.22208637418282    7.19000943264118
O         5.55797718471412    0.95270366614774    7.03204722150054
C         3.38539336205362    0.28201474101948    6.39641494888144
H         2.52867843935192   -0.31033862716167    6.66240331521261
C         3.34666507908192    1.09532577965759    5.26048801424211
O         4.33042469178220    1.74815963095469    4.80615144400306
C         4.62827260221919   -0.76516077367707    8.29983155744554
C         5.56133029860091   -0.53633338486078    9.31006429364890
H         6.14384426353314    0.37133136440503    9.27194518544302
C         5.74176160180182   -1.45505469995330   10.32468434984735
H         6.47201336824548   -1.27132951454403   11.09852072765335
C         4.99600781650781   -2.62183503879030   10.34066661854957
H         5.14227252017215   -3.34669310572373   11.12744321370792
C         4.07117102170526   -2.86173261335117    9.33792566371178
H         3.49665403139324   -3.77697772981052    9.34180821190674
C         3.88575728885004   -1.94267421060860    8.32107087753189
H         3.18718961032567   -2.16280387059962    7.52830240202065
C         2.09837663291712    1.18688581090596    4.44973327147625
C         2.21522464292539    1.60486757723594    3.12351294322403
H         3.19799848975659    1.84559002345855    2.74593612862412
C         1.09935016995478    1.71511274473961    2.31721911545609
H         1.20691916629669    2.03131004914453    1.28990522319542
C        -0.15488092058582    1.42235263715707    2.82833656507156
H        -1.03080481356243    1.50851062612163    2.20186572387059
C        -0.28339130936557    1.02584511923775    4.14952731385664
H        -1.26182150260867    0.81144553592837    4.55430279911358
C         0.83295747230532    0.90719200843829    4.95811458140455
H         0.71233437163942    0.61876148968606    5.99078311178382

