52
CSD_code = RARFEV | q = 0 | S = 0 | Stoichiometry = C26H18CrO7 | MND = 6
Cr        0.39629388722725    9.82356815848840    7.18859207302002
C         0.94629537726753   10.96077743623444    5.59257625200433
O         1.23020524097596   12.25522757080400    5.49619076949767
C         1.04257934064790   13.14590057382361    6.58293016260005
C         1.15883328610797   14.56409005638028    6.04422955699877
C         1.08202877682656   10.34493953105503    4.30219877199375
C         0.82997136230891   10.93814743368603    3.10327131140229
C         0.11758953576956   12.21508179831134    2.95162865388739
C         0.53162440125277   13.13932293559229    1.99718051652001
C        -0.14279644279908   14.33775371031221    1.85069998764510
C        -1.24386325705481   14.61783290902493    2.64212272379149
C        -1.67767159264843   13.68894460437608    3.57624258803137
C        -1.00592468702665   12.49209697165397    3.72922309074938
O         1.06264277066779   10.33714403816344    1.91529590612281
C         1.97721115238783    9.30644359062082    1.82361414854925
C         1.64886958727167    8.22064086830713    1.05417363897067
C         2.57024586780897    7.17081104447733    0.87129071995070
C         2.26190903342927    6.03400895303578    0.09522600134331
C         3.17201032961336    5.02531118333705   -0.05508381269340
C         4.43095304523869    5.10631435636205    0.56037685324476
C         4.76009837629213    6.19600320681381    1.31755408171074
C         3.84392845676234    7.25264219203755    1.49370983773300
C         4.15331061872135    8.39403134690197    2.26386639080566
C         3.24760961534363    9.40072777825611    2.42824268881010
C        -1.24064339719241   10.71782322483097    7.28139388375865
O        -2.25044544114291   11.26924229062809    7.30641430593328
C         1.08238892980824   10.88183794269508    8.57017681170362
O         1.42614793807027   11.35716169489793    9.56160422313203
C        -0.05758565154793    8.70310660943322    8.61173514342387
O        -0.33255618094256    8.02601192918389    9.49957066698085
C         2.08610972202516    9.07615710841421    6.90847848080671
O         3.13675340730048    8.69313855504934    6.64547449890613
C        -0.39397397247317    8.52743518180380    6.09134556368459
O        -0.91529012942369    7.64493790705593    5.57223315693823
H         1.81320071038824   12.95979541413604    7.34172236658931
H         0.05577380323432   12.98239377844769    7.03362655236894
H         1.03146741926981   15.27655809862027    6.85361662655021
H         0.39704987144607   14.73908127091705    5.28885440280788
H         2.13519475882636   14.71182672169522    5.59083674706605
H         1.40684218373389    9.31001586997589    4.28812507225374
H         1.39057754588638   12.91768849605650    1.38158006813260
H         0.19066081357254   15.05472325463396    1.11517651713950
H        -1.76960281571328   15.55403622368488    2.52680346203129
H        -2.54666156484446   13.89715517451353    4.18280000777248
H        -1.35122873658038   11.75747360990311    4.44408454720352
H         0.67643875815574    8.17103215739702    0.58846781767469
H         1.29147518873376    5.97528417164460   -0.37575889501703
H         2.92870939248324    4.15668289832024   -0.64897260702819
H         5.13683472987050    4.29940172723942    0.43042485785294
H         5.72747869549741    6.26358915668031    1.79410541676112
H         5.12791147115966    8.46266692544807    2.72429320512490
H         3.49091846803923   10.27868035865549    3.00823418676304

