119
CSD_code = RARGOG | q = 0 | S = 0 | Stoichiometry = C58H54O2P4W | MND = 8
W        -0.12910306660870   -2.98242592615899   -1.25179808936718
P         1.43505713623437   -1.30962062114926   -0.35031118391521
P        -0.13633316308309   -3.78817621974200    1.07031143034383
P         0.13892530647344   -2.58045775704229   -3.66700453149288
P        -2.49962815085385   -3.25075691739418   -1.86299669181755
O        -1.18999977593738   -1.25605148147842   -2.17784665027829
O        -0.96138984452950   -1.69334487812409    0.38454795610486
C         3.13186186904520   -1.04889705675903   -1.02171647936261
C         3.63165207979425   -1.90836572978401   -1.99296133598155
C         4.90794666369276   -1.73766617771050   -2.50054008215271
C         5.70253924456518   -0.70049248984599   -2.04237440217926
C         5.21647962195951    0.15846206974633   -1.07039556915379
C         3.94182559299748   -0.01429912448225   -0.56243876016689
C         1.05579113786780    0.43798642219524    0.01871086137174
C         0.97899889859374    1.28312492680223   -1.08558908462831
C         0.68847608672313    2.62248397457940   -0.92334102320022
C         0.46431216843477    3.13131655966669    0.34596747063960
C         0.53082997069082    2.29509076497463    1.44614241347597
C         0.82265046801411    0.95153455731366    1.28687702159533
C         2.01078140241421   -2.02185909695532    1.27295312273598
C         0.90669617127650   -2.63706619291849    2.11818268393612
C        -1.63105538518331   -4.01712986830802    2.09837612526231
C        -2.19275149377521   -3.02857132185117    2.89686851243906
C        -3.36842488807246   -3.26876029469174    3.58652328055554
C        -4.00805694177731   -4.49118757340658    3.47526341305998
C        -3.46489923824871   -5.47895559812675    2.66794834160883
C        -2.28660333837984   -5.24341714033705    1.98728392769433
C         0.69641774199589   -5.36935563955304    1.50531844634981
C         0.74941120998524   -5.79963880208439    2.82999739868614
C         1.37958248348893   -6.98419507428552    3.16020188569651
C         1.96432812209091   -7.75874576746338    2.17083685562455
C         1.91008548562532   -7.34381920633273    0.85113897053230
C         1.27799985983542   -6.15695460178577    0.52023452469995
C         1.31175026759150   -3.52519300576493   -4.71691075053278
C         1.94449762769227   -4.64436335716452   -4.18771553523070
C         2.82466834164610   -5.38293692769413   -4.95853915960973
C         3.08198079175396   -5.01012132358832   -6.26761141358939
C         2.45072921003624   -3.90031146262960   -6.80468663201383
C         1.56967094022619   -3.16221541023304   -6.03549335242475
C         0.36011541660267   -0.92565014180025   -4.41104038093396
C         1.62925029012919   -0.35949720724782   -4.32682556736675
C         1.86532030330643    0.91551447626203   -4.80651136071345
C         0.83203009860290    1.64407554003314   -5.37361136058523
C        -0.43211451887531    1.08646370990702   -5.46359108385018
C        -0.66941400918613   -0.19026644497642   -4.98503573658429
C        -1.41171724720849   -3.25660050694438   -4.45964310471563
C        -2.69386968669121   -2.94868029384696   -3.70090440397991
C        -4.23495112282904   -2.64749889749533    0.14182647037890
C        -5.21068732328152   -1.95996164078089    0.83398627136891
C        -5.82747254764539   -0.86482444200568    0.25156981339214
C        -5.46817705192546   -0.47517667499384   -1.02620233335284
C        -4.49041097784761   -1.16397429855645   -1.72200046225446
C        -3.85820539868663   -2.25571357443668   -1.14110472447936
C        -3.38019459179099   -4.87001623478807   -1.75320146427929
C        -2.72169663239517   -6.00648307279702   -1.30498834369422
C        -3.38990725523975   -7.21391843658982   -1.19586917885713
C        -4.72932474336133   -7.29841242675717   -1.53375528253169
C        -5.39678490428557   -6.17055445478461   -1.98422174640718
C        -4.72825984172471   -4.96616214906399   -2.09172042499608
C        -1.64325711954918   -0.29963770736320   -1.36283075136072
C        -2.17091192213921    0.90314224423096   -1.80420731448391
C        -2.76997894564316    1.76381356082039   -0.89650306050798
C        -2.85377464803035    1.42283893920496    0.43844197606014
C        -2.29540671914661    0.24172980703708    0.90360961486916
C        -1.65539591523191   -0.61425142706513    0.02014811624152
H         3.00862085047310   -2.71936117729297   -2.34993623821085
H         5.27797749762943   -2.41278157895573   -3.25908438883943
H         6.69708346378808   -0.56106362617954   -2.44030423821351
H         5.83315623399644    0.96807666889227   -0.70695323781390
H         3.57057621773564    0.66551924288040    0.19225021268962
H         1.14991604459164    0.87418195301513   -2.07437325628557
H         0.62959005274456    3.26884672203570   -1.78686163216166
H         0.23208476685805    4.17798406219833    0.47653221647916
H         0.35041856406440    2.68960233711613    2.43599063357190
H         0.86095625302264    0.30867183101741    2.15398318426736
H         2.71547403639410   -2.80867822488870    0.97331501158368
H         2.56717047863994   -1.25884775661597    1.82880728944830
H         0.26400712944112   -1.85780142192807    2.52592110291693
H         1.34043432703715   -3.20829445253067    2.94512913217051
H        -1.72316190318221   -2.06090534500619    2.97568362087142
H        -3.78909238560978   -2.49343481600738    4.21144197590087
H        -4.92825163259704   -4.67390220056789    4.01100213125671
H        -3.96267382972288   -6.43262060322564    2.56772843368488
H        -1.85963827874611   -6.01492762533615    1.36129574487295
H         0.27962133873404   -5.20713489034772    3.60462473579547
H         1.41324442873988   -7.30750472715381    4.19088690020422
H         2.45640137619324   -8.68489152563633    2.42983353963008
H         2.35973747678026   -7.94847493979723    0.07674655926287
H         1.22806064379234   -5.82858578476678   -0.51031706939359
H         1.73531802330071   -4.92660488515674   -3.16286064691541
H         3.31362473758516   -6.24985212949031   -4.53817842891963
H         3.77265409761758   -5.58282389391033   -6.86920901725448
H         2.64625805136680   -3.60875519541187   -7.82669423474113
H         1.08266399771461   -2.29447749672642   -6.45912935163770
H         2.43326005867153   -0.92950443686473   -3.88057125961048
H         2.85507913509017    1.34281659155790   -4.73012727334899
H         1.01100321358212    2.64320207766978   -5.74328872885761
H        -1.24046793453328    1.65201078102589   -5.90601296286676
H        -1.66249749765540   -0.60756345715961   -5.05440347103659
H        -1.47328381652475   -2.92683882164180   -5.50281957372218
H        -1.24083066702973   -4.34128914582094   -4.45212433023333
H        -3.51026377280122   -3.57887522307991   -4.06863301323232
H        -2.96633168175380   -1.90239173676734   -3.84189990403674
H        -3.74935455247053   -3.50489786660752    0.58873308079660
H        -5.48680076988381   -2.27804017598159    1.82876270925342
H        -6.58620011980823   -0.31724181899429    0.79115432180904
H        -5.94804757412779    0.37610635133975   -1.48685002639634
H        -4.22709521851723   -0.82919779381666   -2.71366028398732
H        -1.67342872851312   -5.93460861117670   -1.04464172454003
H        -2.86436739151444   -8.09033910876533   -0.84367241450958
H        -5.25442689705122   -8.23851029616051   -1.44582536159034
H        -6.44323373743855   -6.23059626144321   -2.24791623846693
H        -5.25945897209270   -4.08572987653157   -2.43026310539095
H        -2.11781799123216    1.14916811693316   -2.85572950307475
H        -3.18501034259696    2.69837825784762   -1.24512466305372
H        -3.34273462106993    2.08623598010210    1.13707119693000
H        -2.34123405560711   -0.00938545075890    1.95363185551381
H        -0.26108310623515   -4.54976873704530   -1.81904839086874
H         1.40839138253635   -3.63894333369537   -1.20983971142980

