48
CSD_code = RARJEA | q = 0 | S = 0 | Stoichiometry = C21H14Cl6NO5V | MND = 6
V         4.66220098314625    6.27279695959169    6.64770655560626
O         7.29195193798589    6.83824922517109    7.51530181132494
H         7.67345005221706    6.12309955237979    6.99454866742524
H         7.24549611120250    7.60361015504851    6.92807027480518
O         5.28833238459517    7.29971219397975    5.71629387653165
O         4.49914751816576    6.70386408457640    8.17688176792564
O         5.46439512723574    4.76801352789446    6.69841817971716
O         3.04050706187337    5.92696314145509    6.25370028344545
N         3.45868502754631    4.37336000535665    8.81275073661491
C         4.82432978634986    3.70271432441905    6.28511458622627
C         4.63249943410567    3.52580579247397    4.90247158301728
C         4.03495966292826    2.39332246300357    4.38630286844598
H         3.90824446977092    2.27595314524868    3.32300242956887
C         3.58379920065537    1.42763033218107    5.27672160510404
C         3.64854913341876    1.63043927898804    6.64669381133980
H         3.21747328354114    0.90146733354080    7.31615520332146
C         4.24522248890047    2.77140807978694    7.16394449366655
C         4.18785673385498    3.11660726209444    8.62916648303261
H         3.72514653116941    2.28803100911669    9.19129763622654
H         5.20559980294502    3.27088502577271    9.00141612773579
C         2.06535684145128    4.27992162106666    8.38182378523046
H         1.44041746016955    3.78990683374847    9.14893937753218
H         2.03626283180082    3.67321715910354    7.47037941346346
C         3.57954934265049    4.90254607627511   10.16455902259670
H         4.58997017542538    4.67452823061025   10.52350136801528
H         2.86216004634950    4.42162828995553   10.85226448862912
C         2.05667512682652    6.37758709540167    7.00547002348461
C         1.63254283265080    7.70283486246133    6.80445652722047
C         0.67695099011234    8.29295327524283    7.60962464523098
H         0.38375249057557    9.31657407572068    7.44691122824123
C         0.12716637141834    7.53773186859892    8.63509126386568
C         0.54024332102016    6.23543397692122    8.86905477426306
H         0.11566037238130    5.68197973718507    9.69240526158244
C         1.51442363671731    5.64763762998426    8.07641296809156
C         3.97837040827917    7.21490981052257    9.24866384711409
C         3.87164628967193    8.61389493270277    9.33810295537392
C         3.20962106491766    9.21635703630950   10.38885270086593
H         3.12297933813188   10.28845675297788   10.44335643350416
C         2.65330360664993    8.39738865744998   11.36352038917035
C         2.75375056847255    7.01333285978162   11.29931052078830
H         2.30557547373966    6.41342531863018   12.07630691884281
C         3.41221502365587    6.40101773177502   10.24629783181060
Cl        5.07590109515509    4.88928764799873    3.94524044459225
Cl        2.86429104547933   -0.01580096868491    4.66439799575935
Cl        2.48639308498475    8.56182979650464    5.58605729328133
Cl       -1.04832711004049    8.24997289933206    9.67084239219886
Cl        4.57269914962730    9.45376248046048    8.01737972180405
Cl        1.80570239011833    9.11555141988382   12.67441742636529

