73
CSD_code = RARLEB | q = 0 | S = 0 | Stoichiometry = C24H40F6NiP2 | MND = 4
C         4.02942230046223    6.47114287581887    3.74217314001629
C         4.39773225563976    6.79878805424744    2.41310425474782
C         3.44585883853937    7.03802767928510    1.44668012539108
C         2.08497729221990    7.11783021695474    1.79006616316006
C         1.69055484550518    6.90833916926298    3.09287392158235
C         2.62099638111884    6.47275707617650    4.05891605717491
C         6.29119279852984    2.55780605080511    3.10930285863776
C         6.96196290649633    3.78905952133252    2.49773935247777
H         7.48746054154075    4.37908919399972    3.24164857499032
H         6.21342333765648    4.42377011998881    2.02764528099577
H         7.67801149091439    3.48849663138052    1.73446645041934
C         5.54658690652878    1.83306533342391    1.98636608163407
H         5.14959455024037    0.87634718847520    2.31760562275217
H         6.22681508036144    1.64291867723894    1.15718072080894
H         4.73488362203285    2.45674438263507    1.61865466508929
C         7.33673191824142    1.61718931901039    3.69799320221605
H         6.87470392636755    0.79575047569455    4.24123554427094
H         8.01751810993419    2.14246647168557    4.36089710337774
H         7.92942178943748    1.19103870822226    2.88886659259321
C         5.76862531830430    3.51942925276835    6.03085611676971
C         6.26857556365511    2.30271672390282    6.81015642221279
H         5.51694076908117    1.52247017950511    6.89067722502440
H         6.52175550154338    2.62299040274480    7.82049163161564
H         7.16181742606706    1.87580407209945    6.36727725299325
C         6.91762528532005    4.51800140328503    5.88565139772234
H         6.61300115177120    5.38026239452394    5.30106082438081
H         7.78459468228624    4.06065404200339    5.41599127185057
H         7.22423205842115    4.87089453484829    6.86957487611879
C         4.62850751052138    4.18358352484041    6.82274832615450
H         4.01324696728555    3.44008534191061    7.32470164906897
H         3.98089923956880    4.77698906391345    6.15545642722582
H         5.02485391463269    4.85561809689057    7.58044738824370
C         0.96397634557799    3.03833853248155    2.11368391555739
C         2.11461104371521    3.50412032290871    1.20274363047335
H         2.77211329797376    4.21498056168326    1.73345864388691
H         1.73116556174020    4.00342542457642    0.31528592858664
H         2.71819514309883    2.66176009543366    0.87289457735011
C         0.48219884864682    1.66508809176265    1.64569537111794
H        -0.39101588559472    1.33437085585780    2.19760501176295
H         1.25132262471473    0.90252188350164    1.73027415936145
H         0.20274925143119    1.73761913982942    0.59491656890748
C        -0.19457377223848    4.02787512703576    1.98919134351528
H         0.07792967987958    5.00088103177530    2.38366029293132
H        -1.07638477312274    3.67302854807600    2.51590605273473
H        -0.46583663901885    4.15360951346107    0.94159999475468
C         0.37303715716751    2.84650647576644    5.17454736770633
C         1.11716787483176    2.49183721212154    6.46408337611672
H         1.54797418000228    1.49417852421919    6.41970291089530
H         0.42968767506986    2.52169554360553    7.30822364443073
H         1.90446831096752    3.22210266982750    6.64416999176173
C        -0.63800233803588    1.75113632415511    4.85479127330323
H        -0.14810430933621    0.82260284769463    4.56938054911352
H        -1.31350101578190    2.05330234763682    4.05975723915133
H        -1.24095469886493    1.55198554650352    5.74028342756715
C        -0.33914832058697    4.18046090529132    5.40938110808387
H        -0.90952548619538    4.49996897903013    4.54334871046695
H         0.38663987886732    4.95529471365546    5.64779728293325
H        -1.02571469481815    4.09270167372088    6.25021133195335
C         3.97834664161221    1.67528223718382    4.72286373532947
H         4.58511920940217    0.77450854605255    4.60149298585025
H         3.70108424827683    1.76021234461390    5.77253551328334
C         2.70457806480880    1.56538538981646    3.88222866240563
H         2.09358776901539    0.73097045286155    4.23569325816963
H         2.98218652695847    1.36823748763232    2.84813251149208
F         4.90316566952837    6.79182005970937    4.73316356414808
F         5.70119304373477    6.92085263419753    2.11085969727325
F         3.81474603601039    7.27495905571557    0.17717568844579
F         1.18544409660936    7.44239669036500    0.84698160101365
F         0.41624889515169    7.12283801192247    3.46149293093358
F         2.28632697251623    6.58448572781625    5.37346438537805
Ni        3.33646676051867    4.71176505474235    3.93876079144696
P         4.98808636960525    3.19327215769525    4.32976461669184
P         1.70572047593734    3.13949507918145    3.86248983198174

