28
CSD_code = RARMIG | q = 0 | S = 0 | Stoichiometry = C14H11MnO2 | MND = 9
Mn        0.89587514310614    8.93324464604180    8.32256128404690
C        -0.72325906201214    8.93326064697918    6.89897830929102
C        -0.83514217722786   10.07757347291946    7.72048310310696
C        -1.02908831018041    9.64267393736706    9.05359431414103
C        -0.56318995390212    8.93331072206316    5.39930651051026
C         0.24019243780918   10.10689105286587    4.91334950519696
C         1.42937444601620   10.42474919468446    5.44470747614653
C         2.17694556306081    9.63609074392223    6.39738919421377
O         2.44089260013270   10.98376948111540    9.72402889467936
C         1.84716972744625   10.16402904659173    9.16711344316127
H        -0.91719474780115   11.09724561419627    7.37067649044210
H        -1.28192141399997   10.27316678740271    9.89606450619564
H        -1.55785331789783    8.93337297172138    4.93691243900203
H        -0.17543289854908   10.70070874221804    4.11221003327095
H         1.91494720529755   11.33647410291602    5.12090786158980
H         3.07801505688978   10.11710902935219    6.78125599196919
C        -0.83508948988100    7.78886703330555    7.72039304615629
C        -1.02907176120589    8.22364219746142    9.05353077237009
C         2.17684668893088    8.23018708491775    6.39740697420518
C         1.42919849193930    7.44164419509524    5.44468677137989
C         0.24007095258253    7.75966650469899    4.91330408586422
H        -0.17559805352529    7.16594499571149    4.11211547535667
H         1.91468044261308    6.52988501070689    5.12084609713921
H         3.07784653085758    7.74904491912693    6.78127524653573
C         1.84739719191930    7.70268975969328    9.16720831928644
O         2.44136930688338    6.88326816426961    9.72435219951909
H        -0.91711239127316    6.76922442085570    7.37049307138126
H        -1.28186820802871    7.59306552180023    9.89594858384219

