79
CSD_code = RARPEI | q = 1 | S = 0 | Stoichiometry = C41H32N5Pt(1+) | MND = 4
Pt       12.74268517386552    7.29316726398873    5.74916039506880
N        10.93590524838038    8.06727743597970    5.43685830775530
C        10.54996037410928    9.04082923661744    6.29454601582248
C         9.29989285195604    9.64375223591858    6.15904694409876
H         9.00433197411636   10.42207720379548    6.84255680754331
C         8.44626762706026    9.23987423887572    5.15134903044645
H         7.47692028310270    9.69918189600936    5.03745035687650
C         8.85662737850138    8.23129305465006    4.28966859894252
H         8.22105576393084    7.88258808736322    3.49276959126894
C        10.10887027861762    7.67645180062625    4.46940861354084
H        10.46276540772642    6.89626459205157    3.80833768861087
C        11.53628452199134    9.36371421407726    7.31859364137923
C        12.72456368483441    8.60481688565135    7.26035935250852
C        13.71514694554399    8.85793942519557    8.19922601797020
H        14.64957136942386    8.31109924355005    8.18098838428419
C        13.53560108799218    9.82698535266751    9.17700166115802
H        14.31753946077751   10.00865052706277    9.89908928241763
C        12.36233956057543   10.56129665731783    9.22984117394261
H        12.22936716412566   11.31244340329243    9.99285394629846
C        11.36328100340810   10.33535353203525    8.30290347339964
H        10.45517393834369   10.91634190735231    8.34789149279875
N        14.47784055776051    6.40690631518636    6.25663028478147
N        14.49601102849626    5.51176149357156    7.25954953205652
H        13.82708790240842    5.57967760202040    8.01431514361282
C        15.57746589487890    4.69788994368485    7.18448644716310
C        16.26908472254468    5.09207110652977    6.04769304687702
H        17.17511886038119    4.67881652612821    5.65932511129067
C        15.55245511765685    6.16545508056757    5.50279375271792
C        15.83945298567216    3.61895655175446    8.11946278305492
C        14.90611017139705    3.25642077333741    9.09390186452177
H        13.96500089641748    3.78054958683715    9.18027747346776
C        15.16870916591757    2.21217064638785    9.95975786985868
H        14.43934593684907    1.94313103379160   10.70833281428477
C        16.36096385769707    1.51227780553658    9.86967675860839
H        16.56259563670223    0.69869525444721   10.54868592816477
C        17.29261331525847    1.86212608297595    8.90533075382151
H        18.22342596051153    1.32141009135984    8.83141509099956
C        17.03679989027157    2.90481916338620    8.03662617946507
H        17.76986908563128    3.17466978012303    7.29366408461204
C        15.84014683065652    6.96769456006629    4.32150261741993
C        16.43539057800071    6.39754099407932    3.19858729800404
H        16.68855331777860    5.34751071036494    3.20205163876931
C        16.67534863826144    7.16962071070194    2.07806435857022
H        17.12801293324902    6.72261326561800    1.20627915666121
C        16.34219950116177    8.51475973253436    2.07347321818531
H        16.53496289156698    9.11475412093511    1.19780597455703
C        15.76858658610831    9.09067137552300    3.19471050123379
H        15.52409768510270   10.14155620087992    3.19628021003387
C        15.51011909765636    8.32287851837549    4.31577740818550
H        15.08669687012908    8.77809774685589    5.20618846127941
N        12.74435268211007    5.82318538958502    4.11112382247183
N        13.08977281443866    4.57108257757590    4.45059494666906
H        12.81010053697867    4.18110650960591    5.33847265552585
C        13.67117395471433    3.90466057396027    3.42689925392389
C        13.69379687263616    4.79266069224487    2.36676622568795
H        14.11584880996902    4.62710927507271    1.39882416336815
C        13.11387380017815    5.98384561071264    2.83727342425104
C        14.19298676461914    2.55622542645579    3.55613161031703
C        14.54809964846716    2.04435558887381    4.80523637117826
H        14.44050121032645    2.64709739132904    5.69600017225188
C        15.07391201231017    0.77151402570985    4.91488499283637
H        15.35127053581726    0.39179539853674    5.88693992637248
C        15.24725016834747   -0.00999624525235    3.78408858825711
H        15.65603601963215   -1.00440599199493    3.87240609712203
C        14.89656764493998    0.48933818901754    2.53956924159727
H        15.02984834277692   -0.11724679084413    1.65714853672286
C        14.37555268849267    1.76358500392318    2.42299087525834
H        14.09383947370307    2.14665766227987    1.45441694296619
C        12.90108002590318    7.21424165057045    2.08641801609994
C        12.81781997851304    7.17132389866945    0.69483830715705
H        12.90087389901022    6.22637865625837    0.18074139642520
C        12.60627625300292    8.32851404647347   -0.02976963213224
H        12.54306363968289    8.28152591226941   -1.10613250086778
C        12.47018462926574    9.54451224165037    0.61969125072113
H        12.30337065804612   10.44640381880827    0.05133642185951
C        12.55154901243051    9.59774642551943    2.00147480425536
H        12.45089588997469   10.54279962180148    2.51374017908894
C        12.77049176822124    8.44428845044801    2.72881333861519
H        12.87179325192530    8.50319402233890    3.81363403365597

