92
CSD_code = RARPOQ | q = 0 | S = 0 | Stoichiometry = C36H51Cl2OPRu | MND = 5
C         1.91234051945685   -2.28027163195143   15.30327987868867
C         2.40186014809943   -3.55371613825016   15.55498822899525
H         2.45760471439983   -3.94252455930281   16.55960160729209
C         2.80579429244289   -4.35760404789511   14.50124829113522
H         3.17230264644157   -5.35166982077750   14.70826878636733
C         2.72878434046606   -3.90153491332555   13.19478636027856
H         3.02737759923505   -4.54323234393685   12.37997586933130
C         2.27063990436752   -2.62713067621981   12.93576913864450
H         2.19650839891952   -2.26918977570960   11.91994244147316
C         1.87419874492850   -1.77924582035642   13.97879708226958
C         1.40200823666940   -0.43914684325335   13.74688925946739
C         1.82246284873812    0.29744407178838   12.61420603290899
H         1.12529639556804    1.02985490460752   12.23606465522614
C         3.07465836921400    0.24405908754482   12.09737084002876
H         3.79490294215811   -0.42377495358051   12.55454817301596
C         3.58332929921994    1.07209129234679   11.02922421937609
C         2.75507416086764    1.80821584106286   10.17479138264800
H         1.68391807202814    1.74901689973754   10.28596046733445
C         3.29090308055598    2.59197762369758    9.17355593986779
H         2.63527917579553    3.15219979211479    8.52218936570588
C         4.66404563623084    2.66192677653688    8.99565575177344
H         5.07962682683453    3.27903785356061    8.21299705816183
C         5.49911122494102    1.92883237096888    9.82388991098967
H         6.56974489142365    1.97320547513571    9.68631762670033
C         4.96637375058850    1.14049426031381   10.82358567998409
H         5.62207578098812    0.57340236768047   11.46894190417675
C         1.71475033667159   -1.62447457977660   17.62468525306265
H         1.46717215849405   -2.66271850251281   17.88935926876386
C         3.18435911746417   -1.32145447586579   17.90526924899986
H         3.83429289053710   -1.99857467246984   17.35461214745325
H         3.38983733245146   -1.42132295969469   18.96740094613217
H         3.40436884069274   -0.30096825362644   17.59439702231036
C         0.79384763420915   -0.68334108834811   18.38920746178201
H         1.04774845987793    0.34991936888031   18.14396629382495
H         0.91289609742778   -0.82495902085142   19.45991223522507
H        -0.24442674823420   -0.88872552329036   18.12457432442076
C        -2.11514048802035    1.54093219053671   13.02273440354587
H        -2.80237615312890    0.90804495174129   13.59769588929489
C        -1.53481145403959    0.63325121814075   11.93938519611175
H        -0.87418768876510    1.19340883565027   11.27509946992651
H        -0.96203703565658   -0.16959759612960   12.41276208076700
C        -2.67345214553812    0.04302679471265   11.11075262798049
H        -3.30659343046939   -0.56914485261825   11.75562092886078
H        -2.26535240893549   -0.60344157314483   10.33131008204000
C        -3.50698645160114    1.15525949165628   10.48007040099824
H        -4.33408530110651    0.72474462973575    9.91230075314057
H        -2.88524550218504    1.72362108333062    9.78376887808298
C        -4.04982733985368    2.09446701098704   11.55323882306819
H        -4.72688132781251    1.54154939937201   12.20827047651361
H        -4.61912639351454    2.90233296330483   11.08775595314532
C        -2.90685026233378    2.67917463811680   12.38252180666087
H        -3.31125429903748    3.34853986350654   13.14540446055522
H        -2.25869604498914    3.26383924418471   11.72650990085837
C        -0.25036886775984    3.73191373538426   13.78879643326400
H        -1.14459794469198    4.30432529510830   13.50639666383868
C         0.67922067442723    3.61171587230611   12.58433737711651
H         1.56088969211998    3.04251623010693   12.88487384965161
H         0.17461623942170    3.08343972035509   11.77296130625458
C         1.12576671850549    4.98412274753278   12.08901722890584
H         1.78963196482256    4.86151413184811   11.23041564693914
H         0.25525029644602    5.56056022119335   11.76386095441138
C         1.84447535749491    5.73164044044185   13.20507041117403
H         2.15160417413977    6.72113340843762   12.86011984397904
H         2.74145444067753    5.17795410549769   13.48850192101612
C         0.92759301035518    5.85849867014755   14.41564132533547
H         0.05151652658019    6.45538720363754   14.14573994147642
H         1.44763282993114    6.37550048223906   15.22430941311208
C         0.47763695123619    4.48256753738420   14.90449039452595
H        -0.17129546386250    4.61981004755769   15.77060576746372
H         1.34963317893422    3.90571489719490   15.21658683279791
C        -1.96714740024920    2.56856127243523   15.76954627200676
H        -2.12951933544845    3.65296894637795   15.70556788275973
C        -1.15279086648287    2.23911719660260   17.02788617209712
H        -1.00367161009708    1.14522515654896   17.04594684036771
H        -0.17267968991158    2.72580057349484   16.98912072924228
C        -1.88044215689503    2.65085338732919   18.30216529697949
H        -1.27773357153786    2.38634121203360   19.17385362041104
H        -2.01473406848088    3.73600204357625   18.30685378282507
C        -3.24178775972599    1.96907531653516   18.37487586194464
H        -3.77364230676823    2.28429914044379   19.27495157135997
H        -3.10500613532623    0.88659010167290   18.42679727874765
C        -4.05848664134005    2.31272561166489   17.13481030795666
H        -4.23520638731346    3.39154811894171   17.10525299904664
H        -5.03012683122833    1.81656451571015   17.17917153038228
C        -3.32993490238986    1.87974231243973   15.86232001362703
H        -3.19201183209242    0.79592472530289   15.87825412315679
H        -3.95220154804756    2.13873052304492   15.00450091512169
O         1.43343552876394   -1.42310896724590   16.23988390050191
P        -0.88071201461058    2.05300393577508   14.32405895923750
Cl       -1.45766102184419   -1.02548320152266   15.21696063886637
Cl        2.18430786318982    1.64810341859082   15.95088424942932
Ru        0.41082851578069    0.33759423580838   15.20437945722115

