89
CSD_code = RARQAD | q = 0 | S = 0 | Stoichiometry = C39H44Cl2N2ORu | MND = 5
Ru        2.05869396369770    6.41218799339591   11.25633708325481
Cl        1.12383374754680    8.47383088747963   11.85926826842613
O         1.76635587354428    5.66572736325185   13.37516655230324
C         2.23919722074307    6.71552652103917    9.29449342402201
N         1.24099896127322    6.18241900874517    8.57272696784502
N         3.21679749890270    7.06543020463623    8.46465705976583
C         1.51789436634488    6.13893654243242    7.14391660002273
H         0.77281547724958    6.72181125156811    6.59046364468262
H         1.48956478914601    5.10934480821809    6.77739619615666
Cl        2.74681191884518    4.21760616781154   10.83406936766884
C         2.92442351309043    6.74079631466362    7.06996645927088
H         3.66194182445692    6.02642902421142    6.69282055306419
H         2.97383869836471    7.64107494815363    6.44967596182362
C         3.70856109829120    6.90454979993465   12.11629734405509
C         4.35118556959978    8.14991523892101   11.98051527528546
H         4.04529146732821    8.74800937603297   11.13446904220388
C         5.21768376796327    8.69920380873962   12.87167442631552
H         5.54544920765411    8.12105450561093   13.72625411507574
C         4.06466751593243    5.94504637396470   13.14046719606772
C         5.37631184951791    5.60248443861827   13.47140544148081
H         6.18591316813578    6.04831851354814   12.91314548384751
C         5.63195712250552    4.66858357974839   14.45748682417146
H         6.65032186599524    4.39844627145894   14.69278666937195
C         4.58354594901354    4.07675854824409   15.14055064235611
H         4.78190090215713    3.35864665432261   15.92201351334713
C         3.26807145845515    4.37626609622697   14.81766644259068
H         2.47054039944378    3.88249439599328   15.35070866189212
C         3.00276667552456    5.28054075343150   13.80280948812601
C        -0.56264684960857    5.94967268421013   13.41892284083704
H        -0.45922547060570    6.93905149551826   13.86136833804855
H        -1.52071925747675    5.52564304999804   13.70565856237309
H        -0.54154939220523    6.05632123020158   12.32831147508704
C         0.57992554148270    5.04174546621835   13.85852991701825
H         0.62578703657537    5.00463898149851   14.95727931831386
C         0.41431812455544    3.64065709796436   13.27402665201473
H         0.34297573220384    3.70480779412262   12.18808721996263
H        -0.49250704765350    3.18239413691917   13.66056394390682
H         1.26436938809215    3.00706272007803   13.51690117800572
C         5.77166127410104   10.02676313481632   12.76112028686433
C         5.16473656945128   11.03420957607108   12.00273632214767
H         4.22133426639766   10.83780152604587   11.51938400237466
C         5.74107936610241   12.28445246709020   11.90711898229663
H         5.25728843641520   13.05535581111078   11.32461873139865
C         6.93223029869526   12.56250047287703   12.56065253153941
H         7.38188608150774   13.54110324876823   12.47945212633284
C         7.53548848563178   11.58128173439586   13.33215110576622
H         8.45743375964341   11.79533797079815   13.85356523656319
C         6.95766617061182   10.33217106127444   13.43973456746568
H         7.43195535474214    9.56929462098992   14.04118444398437
C        -0.02926616967242    5.86869458911374    9.13749513844297
C        -0.90613535053501    6.92111959882044    9.44615091683909
C        -2.11035024604978    6.61932124802507   10.06858954358448
H        -2.77429746610986    7.42853132868903   10.33614606992130
C        -2.47767992083351    5.31167493600490   10.34857717334116
C        -1.64825446914212    4.28435409608128    9.92197071322171
H        -1.95294429085514    3.25842683045658   10.07525343705589
C        -0.43531903993020    4.53510199971029    9.29457457484167
C        -0.60129700078852    8.34091965949110    9.08482639295323
H        -1.52371940246014    8.86934297786997    8.85523398928178
H         0.06759893294541    8.40503239789119    8.23043836733028
H        -0.12596393666252    8.84063789692010    9.93095159771070
C        -3.77394100162199    5.01706117175373   11.04018831465647
H        -4.59312619004203    5.03389754740022   10.32068636829130
H        -3.98223307482585    5.76631225924375   11.80092376502473
H        -3.75249963278808    4.03419998487003   11.50506388936395
C         0.36836306236490    3.39534720838039    8.74882103009035
H         0.05888734356140    2.45909311726347    9.20679047644846
H         1.43068551597139    3.53438927760952    8.93643753373323
H         0.20687244078236    3.31462459296446    7.67252842041705
C         4.40419961037671    7.77908988370536    8.77539166219190
C         5.58423115165476    7.09275347250434    9.05310891757482
C         6.73065544859266    7.83106639625440    9.31482300000120
H         7.64849073947681    7.30819797590198    9.54329752765804
C         6.72634213089325    9.21648003571821    9.28745884617440
C         5.53573420241488    9.87495896087926    9.01026752158007
H         5.52152487177068   10.95507478685885    8.99951081611270
C         4.36368240830761    9.17634209986003    8.76889604467399
C         5.60930278268123    5.59787414283006    9.08280072907089
H         4.76362164136932    5.21697763252551    9.65459396892136
H         6.52855621189761    5.23849835853258    9.53670129769969
H         5.54528507644647    5.18849971050094    8.07453174491750
C         7.96669523463650   10.00103325583596    9.58523987330283
H         8.06791906861592   10.83826019454619    8.89777269160496
H         8.85237933428491    9.37502690703741    9.51286767722027
H         7.91195356004949   10.40490116837388   10.59624793934091
C         3.06244855885141    9.89433763881897    8.57556043834483
H         2.62870226990839    9.68306234434485    7.59912868896337
H         3.20241799981393   10.96853819900534    8.66155312024394
H         2.35085385469661    9.57133844637398    9.33692329520215

