57
CSD_code = RARRUX | q = 0 | S = 0 | Stoichiometry = C18H26CoO9PS2 | MND = 8
Co        2.89663247846283    0.55215777453641    9.17205150441999
S         1.40545996223599   -2.23875562473657    9.35097394269767
S         1.46413325627245    0.74310905508673    7.41428348169317
P         4.59038284178863    0.82514000939063    7.80718260609144
O        -1.99255733637156   -2.11801655473583    7.50310019830892
O        -0.87691396650734   -3.59443303045119    8.77814466537013
O        -0.88458864138764   -0.51073344405262    5.39842582617657
O        -1.74202119078787    0.64921902066455    7.12545221000039
O         4.00933602645032   -2.46546612702291   10.64564069617321
O         5.18122308643953   -1.77131835241267    8.86069847086169
O         4.70432612788618    2.32337266427477    7.17418427046288
O         6.14523806741845    0.73180828387374    8.19570368735885
O         4.54856847042738   -0.14073725114914    6.54634996303930
C         0.21995836342613   -1.63070265808831    8.19855653058447
C        -0.99250270081005   -2.44343102111012    8.10577499930056
C        -2.01429750856724   -4.44124319763432    8.75918841571685
C         0.27509055970361   -0.47488254079193    7.49147759645440
C        -0.86409442966046   -0.16200810701065    6.54590659206220
C        -2.88649579298843    0.96590854721183    6.34335043159022
C         2.88371968401777   -1.42902513040042    8.79368920489600
C         4.04238717472488   -1.94437992598297    9.55597854553096
C         6.37942636469031   -2.23831067109689    9.47923357341740
C         7.45976617928806   -2.34607063709507    8.42003724312415
C         3.59527289346942    3.05066854103979    6.67867375637844
C         6.76318796756741    1.59693670786577    9.12870363170077
C         5.51136390858377   -0.05273889826803    5.49801950550956
C         2.03969179231832    2.23471891682033   10.18420711648184
C         3.41755330489722    2.20622543598600   10.42256974139074
C         3.72704178701869    0.97355163878936   11.08942774982034
C         2.52972189100260    0.27000048776872   11.27870945894995
C         1.49492291064687    1.00229363942171   10.65051798296755
H        -2.86748856902797   -3.94231695140991    9.22416360411509
H        -2.27735546109264   -4.69970920309663    7.73115581547587
H        -1.73795364658509   -5.32988788296157    9.32064277536757
H        -2.58391349333727    1.36548370127228    5.37331584572927
H        -3.44759618835664    1.70468356596831    6.90984226141091
H        -3.47939931909350    0.06252214111941    6.19035533849875
H         3.02145717126738   -1.57274153443993    7.72232420519209
H         6.17607741973595   -3.20718797080915    9.94906405646777
H         6.66995672170322   -1.53223812177940   10.26600252210152
H         7.61171715144922   -1.37604991026282    7.95584533765820
H         8.38817187568997   -2.67953409910831    8.87504024041120
H         7.16207886642592   -3.05802473476483    7.65519191182374
H         2.85881274638773    3.22134237494760    7.46495514546942
H         3.11274482713150    2.52064496806532    5.85711917851437
H         3.98912499936088    4.00433080345825    6.32693724821460
H         6.47064253045364    1.34535539247879   10.14900519063467
H         7.83806206729987    1.45270880799000    9.01581036112049
H         6.51304126027849    2.63790539948841    8.92169426427686
H         6.35912872631015   -0.69929002791016    5.72368417598080
H         5.85978051485779    0.97295473422805    5.36954336528914
H         5.01503862022611   -0.39388512234060    4.59013448674539
H         1.47170610730891    3.05865483516368    9.78335657547184
H         4.10907635907840    3.01897624050161   10.25833515708279
H         4.67727659892463    0.71565823146007   11.53023730401322
H         2.41939169153138   -0.66240703269838   11.80712451380790
H         0.44458689038266    0.75839384475018   10.68120552061316

