44
CSD_code = RARRIL | q = 0 | S = 0 | Stoichiometry = C16H17CoO8S2 | MND = 8
Co        7.45878874424316   12.71879687181098   -0.94360551214063
S         7.44881574745499   11.50734089774533    0.89563201930187
S         5.74783892423241   11.51251481248764   -1.83550017254336
O         5.34346546650378    8.22166398963867    1.19358861638979
O         6.85291799253026    9.23112574404744    2.52739003515440
O         4.78848704870408    8.39537950645323   -1.73941949506671
O         3.30800380409740    9.50275462706137   -0.46722946959043
O         4.59740997162348   12.06682415503331    1.72723537361076
O         4.28293185099618   13.68743702675438    0.19865965942337
O         6.25137136501076   14.98758365088451    1.96109183142080
O         8.28658918040001   14.03853374175817    1.92268100475735
C         6.26765850947378   10.24956003064635    0.49403313040291
C         5.53960323386898   10.32136273492568   -0.65114603419672
C         6.19888615763336    9.21039882815545    1.51159438284594
C         5.21867667605413    7.19161898711950    2.16510959226942
C         4.41323001691041    9.36105837695289   -0.91678650151573
C         3.78722280521109    7.44197820858045   -2.07719337897786
C         6.50427161937540   13.00070888913603    0.74251354517790
C         5.00320491398870   12.96293552209094    0.82965582623713
C         3.19046634842919   11.88512631323726    1.87520564227844
C         7.12441931337125   14.04993105725332    1.58689780376479
C         6.77344186932224   16.02724959239962    2.77753734502194
C         8.28451445086073   14.62803004834079   -1.36477587431879
C         7.71124851404161   14.03927268170986   -2.51158945127929
C         8.41958716697689   12.82220941846831   -2.78100562652409
C         9.39521356980185   12.65478857566825   -1.78438633954539
C         9.29008055017892   13.75372362706812   -0.88686897126828
H         4.95949390421802    7.61755299784410    3.13625149556698
H         4.42802859235917    6.53516350134066    1.81114092054413
H         6.15984677346691    6.64561404348524    2.25913848439835
H         2.97408917210107    7.92646119769926   -2.62110585472458
H         4.27620351240302    6.69817390693945   -2.70039332928332
H         3.38492666447336    6.98528741651712   -1.17134565586433
H         2.66987587849947   12.81522206170426    1.64335668389614
H         2.86153674440077   11.09635541751885    1.19499282421063
H         3.02336628382998   11.59152692811638    2.90896854277894
H         7.17931261553034   15.61373361607902    3.70303244355084
H         7.56911367143955   16.55893929679725    2.25191969357706
H         5.93985462738238   16.69250169518689    2.98545537928506
H         8.04561097376200   15.59886817922254   -0.96397379604312
H         6.97464843069461   14.48911999835181   -3.15830779726964
H         8.28615266153806   12.20628675295200   -3.65612838195645
H        10.14730659062933   11.88421316636737   -1.74986373769817
H         9.93718709197676   13.94457190844387   -0.04655689605819

