46
CSD_code = RARSOU | q = 0 | S = 0 | Stoichiometry = C14H20N2O9Ti | MND = 7
Ti        8.87065310047621    4.28093713389141   10.75737787604698
C         9.84184654584081    6.43685488975935   12.19068819356734
C         8.36582171815354    6.85767346111366   12.00860083233043
H         7.81784694841751    6.37451305397806   12.82630085401119
H         8.23816872377877    7.93974670434924   12.10440657883045
C         6.30325880560551    4.75655673490283   11.71388900457479
C         6.46548791741402    6.01709595866871   10.81765248327507
H         6.05246454896112    5.76447551258004    9.83585357963627
H         5.88864171854382    6.85177236959458   11.23773247161908
C         7.86793815024010    4.36025737801210    8.15872706428145
C         9.33668607833329    4.74286301123217    7.85879219773147
H         9.39899204036265    5.36904842384618    6.96590326539531
H         9.85091312429123    3.79892487711151    7.64837931980871
C        11.25780714473485    3.43051753664670    9.69730278215964
C        11.29740293297101    4.91366622599895    9.23218979091602
H        11.79421605203335    5.48212477552749   10.02529596832897
H        11.88748235883223    5.00247163243599    8.31014554833084
C         8.26651284909052    7.11781651549946    9.54253193674076
H         7.62252095598732    6.78219638540156    8.71901975372780
C         8.06645197323434    8.63240298781974    9.70603663319935
H         8.71088553432342    9.01769622794732   10.49697443986182
H         7.02674672575325    8.83916307448139    9.96420586188557
C         8.44424527107490    9.36342104503004    8.42070035834586
H         7.81573478068054    9.02439369930016    7.59526549257716
H         8.27833980447621   10.43321900345274    8.55121394169903
C         9.90982731421941    9.09578849710650    8.09862486320325
H        10.53808180256186    9.44986795240519    8.91781915989473
H        10.20044335471114    9.63358757711594    7.19567783683510
C        10.11698015930556    7.59897779557143    7.88594212047675
H         9.49213365369086    7.30388881917910    7.04260948152048
H        11.15919725366980    7.39417448553094    7.63684873005888
C         9.72939494654941    6.81795563057785    9.15220139953247
H        10.37910111473274    7.17174831532115    9.96406611937054
O        10.03389271901894    5.24931930461903   11.72506999109695
O        10.67058620202429    7.16343156461040   12.68162873607117
O         7.40302092514736    4.09278688617776   11.84777533868343
O         5.24892553876485    4.48755619496385   12.23221584847054
O         7.72813961781049    3.95376762489927    9.37103388277954
O         6.99576530847259    4.47193303742009    7.33021045312569
O        10.08993713389900    3.06084739706382   10.10347457017456
O        12.23899709560303    2.73005030585462    9.64715930198754
O         9.41442385900405    2.72676537337040   12.54117537839740
N         7.89811712266464    6.30843131103949   10.72782824189827
N         9.91127140617478    5.35373184291622    9.06400701588895
H         9.98647236502653    2.04978963499245   12.15180800686974
H         8.58982530333781    2.30329183068259   12.81643729478225

