28
CSD_code = RARWOW | q = 0 | S = 0 | Stoichiometry = C6H18AuOPSi | MND = 2
Au        7.65793558069722    5.13543737000643    0.48354182390386
P         6.03997207452839    6.63725763777855    0.45006800578496
C         4.36676908102026    5.99898637571488    0.79267471191104
C         5.81630784996883    7.51565955778070   -1.13197957943593
C         6.20082337354860    8.00304716312438    1.64726288712978
O         9.14296939995157    3.81760464009313    0.50616881152010
Si        9.79691933008333    2.37589946142339    0.50762478524649
C         8.82286507737912    1.13300232500560   -0.57718488426938
C         9.87964255380233    1.64283950381908    2.27361663417869
C        11.57664296899474    2.48971544152247   -0.17694633223220
H         4.12470978602512    5.23612165288370    0.05379704701186
H         3.62717818496983    6.79970880640412    0.75285182212729
H         4.36144988467494    5.54061905801073    1.78077820664787
H         5.61059480809346    6.78419301254963   -1.91248975193070
H         6.74098302680929    8.03627085860977   -1.37794702686777
H         4.99477444533976    8.23053160375440   -1.06973496484912
H         7.13705665374668    8.52661139249052    1.45802957366978
H         6.23261563690620    7.58595552943638    2.65298508669075
H         5.36474908702455    8.69833398047644    1.56177378198854
H         9.30477501996745    0.16101028317687   -0.61281120560286
H         8.73562313834384    1.49366622629815   -1.59820599507685
H         7.81506134144935    0.98549630065883   -0.19830209292746
H        10.39039173237142    0.68494573857157    2.28844190594301
H         8.88590310430218    1.49165910046312    2.68584991170354
H        10.41163845652724    2.30955176645487    2.94567052562424
H        12.07394236761874    1.52478148393840   -0.15517471364423
H        12.17486261539790    3.18318530804771    0.40579084942253
H        11.58044342047305    2.84040842149904   -1.20444982367097

