70
CSD_code = RARWUC | q = 0 | S = 0 | Stoichiometry = C36H30AuPSSi | MND = 2
Au        5.67013944497182    3.94394019889212   13.53321142244543
S         7.86972355573017    3.23912887735584   13.63139659972314
P         3.61462141051819    4.88571858386464   13.67357060441586
Si        8.49690798320414    4.79740733594705   14.92583408004565
C         2.27575471757367    4.11124012307326   12.72667234407611
C         1.18417146475649    3.47896980049376   13.31001602898527
C         0.24306260005040    2.85979694934196   12.50559640640963
C         0.38976331982463    2.86266042985328   11.12855874395727
C         1.48566061952495    3.48198411205489   10.54569843890318
C         2.43075887775694    4.09828836609306   11.34106581479171
C         2.98861792115401    4.90829597276392   15.37463466751573
C         2.28006919007588    5.97023651437650   15.92351578605674
C         1.83415054880390    5.88997295900192   17.23118838016188
C         2.09172337074113    4.75997053447927   17.98970134026529
C         2.80855364592815    3.70488447599329   17.44702415193112
C         3.26197159164934    3.78025799967808   16.14465312286180
C         3.55301827207161    6.60997164596287   13.11798750967804
C         4.74732911900680    7.32030484687226   13.06224135074833
C         4.74845863288651    8.64454113593675   12.66334031440472
C         3.55884300529166    9.25976668118994   12.30976351585845
C         2.36781750999134    8.55046901122050   12.35029060329338
C         2.35892780886429    7.22788343380565   12.75253139888359
C         8.49200384183631    6.47644642033391   14.03757324554375
C         8.32272958483339    6.55883966043658   12.66069674703500
C         8.30511782692531    7.78099123788275   12.01207554265050
C         8.45723483354256    8.94983643247049   12.73873193389547
C         8.63148135404832    8.88630579594964   14.11163383172878
C         8.65094903996788    7.65996489610825   14.75038730545698
C         7.31392099492592    4.95215633641775   16.40385947827594
C         6.32379054063965    5.92634124030138   16.45745189700001
C         5.46342034013788    6.01548492962917   17.53620582957807
C         5.56802944177204    5.11288542582910   18.58041102788854
C         6.53755872296194    4.12575489575881   18.53658541047171
C         7.40185769043740    4.05236283649730   17.45928285463335
C        10.23249124640307    4.41976417963148   15.55988123278645
C        11.06970078940901    3.54297925862489   14.88197071474397
C        12.34769500893327    3.28310131867858   15.34238996670787
C        12.80805563457129    3.90071185143908   16.49276136595813
C        11.98239570888216    4.77369541966003   17.18138600462023
C        10.70579598841288    5.02897006555111   16.71594195146486
H         1.07088527918808    3.47508028216391   14.38527925340927
H        -0.60828473055933    2.37242064822461   12.95750864136061
H        -0.34791791761615    2.37750566184401   10.50725735715629
H         1.60338690920531    3.47731729529171    9.47234950030709
H         3.29756455746696    4.57744374483609   10.90310470506104
H         2.08621747468720    6.85636642005138   15.33519372409965
H         1.28489062735015    6.71540516008312   17.66035911568672
H         1.73968004520427    4.70477946297815   19.00906432512095
H         3.02080869787565    2.82908885760414   18.04136831260413
H         3.83855936368448    2.97204086811471   15.71166327375404
H         5.67625352255905    6.82683371212021   13.31872338478270
H         5.68104736760093    9.18701576397987   12.62420812355255
H         3.55842208617410   10.29226407707236   11.99370993881745
H         1.44306012351044    9.03007021599402   12.06463172629723
H         1.43336758672761    6.66779800455958   12.77630724716015
H         8.20335504643726    5.64573573488309   12.09392690186852
H         8.17157151219143    7.82240678392568   10.93999342181016
H         8.44588974415015    9.90797237667935   12.23710267674670
H         8.75374705970878    9.79571261530011   14.68379985502864
H         8.78851377236376    7.61870172223173   15.82169305895974
H         6.23474858300365    6.64193502825026   15.65016604300349
H         4.71007621105499    6.79085762205309   17.56345834501812
H         4.89779281383725    5.18202970292783   19.42552024112299
H         6.62366235297781    3.41610838494752   19.34759243213924
H         8.16346391596318    3.28614401911541   17.43110230538119
H        10.70292876334650    3.05589170286624   13.99098152877981
H        12.98668527418564    2.59708660356397   14.80437584388665
H        13.80651426961175    3.70024607257307   16.85525016853425
H        12.33543348821295    5.25445600187123   18.08329009454993
H        10.06240300110428    5.70440326435055   17.26329948823876

