79
CSD_code = RARYOA | q = 1 | S = 0 | Stoichiometry = C42H30Br2CuN2P2(1+) | MND = 4
Cu       10.07751609761461    9.82932937368649    5.23839218746431
Br       10.05422180924526    5.78027033058699    9.35190852987123
Br       14.47296083225963   13.47275019214191    3.48314690547105
P         9.57933929648278    9.36578322216733    3.07739051249047
P         8.61127518675730   11.55740435201041    5.23301594357766
N        11.99773979713813   10.71710464724612    5.18909379719436
N        10.85622195217580    8.76936180413200    6.66835620012462
C         7.63217449068598   11.27039365233164    3.72277092946724
C         7.34157982547114   12.03370879864695    6.44112392390952
C         5.71975566151479   11.77103549683564    2.34604486486944
H         4.81600725249829   12.33585076233696    2.17594706647210
C         9.51971020780227   13.08752170318279    4.87883718405038
C         8.05058713483939   10.31488800285135    2.78653397879049
C         6.54098540728153   10.99635819537355    6.91736759789466
H         6.70264694755565    9.99265798294557    6.54237080565234
C         6.13270959724940   10.82389104659063    1.42077062769104
H         5.55082194963809   10.64921279526800    0.52878727618893
C         7.28951307183122   10.09818918771856    1.64061862619382
H         7.60975513038118    9.35590540241907    0.92239610387850
C         6.46293174697148   11.99086866071749    3.49161356596613
H         6.13883132168598   12.72411506548660    4.21748806483704
C         5.55377589753787   11.25560558791191    7.84745926282583
H         4.92834777769931   10.45443759673221    8.21114549150423
C        10.29582813195438   14.84695329256223    3.44360026494791
H        10.25506482008384   15.36823487398835    2.49915800487118
C        10.40836153832413   13.51293993377464    5.86724292492258
H        10.44629080802010   12.97521552465828    6.80736890687583
C         7.16457746559735   13.32705438988076    6.91916972783308
H         7.78979956528737   14.13142522939176    6.55799802973105
C         9.46697921923165   13.75965347362829    3.66354317719755
H         8.77697794240729   13.43971319396560    2.89623800549450
C         6.17701695003454   13.57688104625825    7.85629566374243
H         6.03413186374445   14.58117156773148    8.22583075294808
C         5.37311730976538   12.54753556694799    8.31827842620263
H         4.60439487483217   12.75165243483602    9.04763553967775
C        11.17419977049349   15.26826643203928    4.42791854679243
H        11.82208077696083   16.11195252536256    4.24726898175397
C        11.22412071507195   14.60494445197114    5.64532512744622
H        11.90408880625098   14.93810400375209    6.41549812774143
C        10.80124452509701   10.18126954941323    2.01263357240296
C        10.28286882633601    7.82321958243711    7.37955252131359
H         9.25027161029454    7.59382090785099    7.16018854230420
C         9.72269187636634    7.43373283676137    1.00159806397183
H        10.34263560197906    8.12420533681571    0.44721980008205
C         8.44550303459157    6.88613027060408    2.97393550760966
H         8.08513774741106    7.17218386346949    3.95486042380704
C        12.14535937503920    9.08929706139364    6.91038434079664
C        12.09446497126736    9.65855220809224    2.05579247809069
H        12.27972995547671    8.76049118791664    2.63294235405940
C         8.12987464098697    5.65521150157644    2.43264525473709
H         7.51426803972916    4.96190264603252    2.98544088749919
C        10.96611232955938    7.12889327137694    8.38351517470396
C        12.90837354074440    8.43989355182302    7.90667170646898
C         9.23370426802493    7.78358666055492    2.25551806001776
C        12.28460413459859    7.43119777265950    8.65563108467872
H        12.82896991969497    6.90751283916146    9.42640095347365
C        12.86419940767227   11.43851551141626    0.64864200724370
H        13.66608732327589   11.93265401056553    0.12233997465182
C         8.61225027578791    5.31017974963053    1.17912640421321
H         8.37001586474922    4.34762071468294    0.75587611495256
C        14.09660858030241   10.48282298963997    6.35594458835240
C        13.83310447704090   12.09121334678561    4.60426316679348
C        12.74899977006418   10.12051784510610    6.12804907762874
C         9.40678934569650    6.19590704203656    0.46923894316463
H         9.78132719753929    5.92296577172340   -0.50583574726315
C        14.63662521740866   11.50322032631141    5.55738080693222
H        15.66121207065708   11.81566246215223    5.69336075050837
C        13.11833597406880   10.27950028109895    1.36779973564942
H        14.11633998059706    9.86766661179420    1.39481720594898
C        10.54895292426341   11.33815408486306    1.28483500995215
H         9.54928179892965   11.74599969959822    1.24406499991510
C        14.83642582689029    9.80762030454973    7.36966953979448
H        15.86392581619130   10.09560530448321    7.53087431196176
C        12.50869583513045   11.66687121832319    4.44937953370535
H        11.86926818381874   12.12069578993877    3.70608356082299
C        14.26551330568890    8.82792412746158    8.11188440821927
H        14.82820748647226    8.31833741233510    8.87895559277743
C        11.58265728259495   11.96194782764602    0.60637079564686
H        11.38652270747527   12.86105471982815    0.04209883789955

