59
CSD_code = RARZIV | q = 0 | S = 0 | Stoichiometry = C30H24Cl2HgN2 | MND = 4
Hg        2.60268195777341    3.46893179523130    4.00696483451588
Cl        2.47982366792153    1.21000493091233    4.32370760031234
Cl        1.13700979853216    5.14471710254954    3.49543922841270
N         4.39465757673409    4.04629433798285    2.51730605956257
N         3.98245878796680    4.05841001981626    5.88179260418407
C         4.97283792548081    5.26384389284218    2.89018392252718
C         4.72196374324218    6.42608404684467    2.16267623253975
H         4.06920769903961    6.37510816225505    1.30334719329012
C         5.25105926605453    7.63492577129226    2.57124237514163
H         5.03383157139326    8.53130948673893    2.01031623393823
C         6.05604486606392    7.69336354349505    3.69616714249943
H         6.47425819133215    8.63544348943183    4.01703422478124
C         6.32337555882820    6.53961733510862    4.41249110270727
H         6.95811281280009    6.57746197334518    5.28641155450872
C         5.78013341830122    5.31964616129935    4.03382565173059
C         6.14028311097249    4.09931081006835    4.79422167589623
C         7.40482698869917    3.54956531781334    4.63405959854068
H         8.07990461447691    3.99799718227164    3.91905656604124
C         7.79996640298529    2.44262851885121    5.36491727622508
H         8.78146270006481    2.01953389788098    5.21319720854179
C         6.93340747597137    1.88069379882350    6.28699107418547
H         7.23246429636384    1.01417446021615    6.85712392651809
C         5.68022333419247    2.42871186400060    6.48017988884538
H         4.98632954919600    1.98004803616658    7.17611843644503
C         5.26979601417640    3.53244095299731    5.73421391990727
C         4.46771457870103    3.63290818533886    1.30468648688659
H         5.04321875281094    4.19275026797634    0.56050644568437
C         3.83805865454526    2.42376978039043    0.89140977412663
H         3.32057445797498    1.87446695865039    1.66976975802432
C         3.86857586655832    1.97286629502792   -0.37840305708037
H         4.39740158317209    2.55964024779149   -1.12230805040726
C         3.24719771698915    0.76620936976256   -0.87216617831071
C         3.34637126962300    0.46755391172330   -2.23673230579728
H         3.88380804845520    1.14286442628634   -2.88774225092782
C         2.76680243136525   -0.67132300664062   -2.75807271453931
H         2.85209021519841   -0.88499937046923   -3.81339584195841
C         2.07569448708291   -1.53942900235709   -1.92730973605397
H         1.62151110471773   -2.43087741044177   -2.33362722499405
C         1.96986957687178   -1.25932857644323   -0.57313284763460
H         1.43254292027720   -1.93461365805646    0.07580119611549
C         2.54639902217105   -0.12139604456232   -0.04615610207487
H         2.45318481502824    0.07657595420951    1.00986287810838
C         3.51527554850771    4.32477154958625    7.04689684630453
H         4.14246615516402    4.20946485442915    7.93670906460347
C         2.18735540305517    4.80935823830087    7.22294711131274
H         1.61676653619285    4.95491747219375    6.31260551817216
C         1.65227071305646    5.07486462305916    8.43117885259815
H         2.26046930543533    4.90755985587509    9.31401699554489
C         0.31516632310394    5.55823137492945    8.68544521543027
C        -0.58662472620051    5.87443430569834    7.66169526066390
H        -0.29597982742128    5.76779796423883    6.62862411358146
C        -1.85431839003419    6.32967035811780    7.96286153585072
H        -2.53864724067493    6.56998852707292    7.16297657133991
C        -2.25330766158001    6.47916549241846    9.28266214090198
H        -3.24708569471481    6.83419815202715    9.51158540742114
C        -1.37189181611371    6.17198549995586   10.30747510320478
H        -1.67777910670192    6.28713915399974   11.33694977989880
C        -0.10219536423153    5.71851341769836   10.01253024524067
H         0.58212301306220    5.47903394398908   10.81446447700086

