47
CSD_code = RARZOB | q = 0 | S = 0 | Stoichiometry = C24H16Br2N4Zn | MND = 4
Zn        6.37162505750355    7.53969530667849   10.99476117886322
Br        4.71280168151561    9.14382390230506   11.51485516898079
Br        8.47443442226248    7.34952390550884    9.93948167548069
N         6.51911116499869    6.21078497284753   12.68981881083564
N         6.95419155304562    5.20141589608872   12.05412980351009
N         5.27726234337558    6.15869538259711    9.69607358601504
N         4.92755646874217    5.13828055115675   10.36512315764993
C         6.87169011377051    3.95333600470391   12.56700620031983
C         7.37861993954330    2.90104297637772   11.78067348961742
H         7.84505374716959    3.15047824168269   10.84076924194789
C         7.26883535410002    1.61136961082214   12.22383244269725
H         7.65121537443299    0.79578296527584   11.62929764844366
C         6.65588802399167    1.34047608979167   13.45461033870625
H         6.57277153130071    0.31677357220061   13.78873826720682
C         6.16691631410181    2.35267397967399   14.24198541404927
H         5.70418036831200    2.11919232853992   15.18815247049418
C         6.26649897591958    3.68809871713468   13.82207308034449
C         5.80611219299692    4.82881912531045   14.55432589501801
C         5.21860266575486    4.78240256788310   15.82771109336556
H         5.08639681987037    3.83221191840012   16.32098718599012
C         4.81886487081982    5.93694050244207   16.45264093359226
H         4.36794892288488    5.88719318789555   17.43255035430559
C         4.98991053751499    7.18253748126309   15.83679402310066
H         4.66958996740823    8.07865692712002   16.34476513433468
C         5.55825843633443    7.26578483017009   14.59385040740796
H         5.69510734050720    8.21923181356647   14.10924570822927
C         5.96820242745100    6.09522725082359   13.93109010163838
C         4.76504709438839    3.93141720383618    9.77209028078598
C         4.38087496105008    2.85353490252656   10.59296043122812
H         4.17953136563640    3.05045229759339   11.63419263442351
C         4.27321987133571    1.59812824954038   10.06042102725582
H         3.98444493434357    0.76538274329035   10.68358445471103
C         4.54107106741292    1.38431639659363    8.70178504247794
H         4.45898109826651    0.38601595909238    8.29818403872299
C         4.89778986656612    2.42304915082932    7.87977181395577
H         5.09180711245553    2.23775388841832    6.83504994811964
C         5.01031343946915    3.72565675832917    8.38997648267719
C         5.34696624713604    4.88897541865020    7.62747299994953
C         5.57583108195334    4.90987092710854    6.24339802022851
H         5.50541225347059    3.99532441524285    5.67594278925674
C         5.88240639978349    6.08620694768782    5.60708922857032
H         6.05944525994378    6.08871814185234    4.54199548199318
C         5.96292662463699    7.28965423141939    6.31861870929650
H         6.19768995353353    8.20412687243833    5.79694434360761
C         5.74817016062064    7.30490551230452    7.66991770482527
H         5.79627363084226    8.22692293665648    8.23168261328781
C         5.45085096163825    6.10863703855724    8.34617914245248

