104
CSD_code = RASCUM | q = 0 | S = 0 | Stoichiometry = C55H44OP3Rh | MND = 4
Rh        9.95439993732102    4.67985347715731   14.02400008728735
P        10.85571156494630    6.31340819322751   12.78905747181490
P        10.53438080566491    2.56980979690600   14.60123853165217
P         7.99931322021576    4.31660184511247   12.94295340685498
O        10.74974250309477    5.05522875272324   16.54154047041365
C        11.47875862706723    5.17618679217020   15.29844660316913
C        10.04882227033947    7.63958781803187   11.82508665907056
C        10.41656010225341    8.04796182412423   10.54983974661395
C         9.70655712809599    9.05357869934404    9.91630465814303
C         8.63460242269296    9.66083782941221   10.54803711003946
C         8.27079761914672    9.26568396387633   11.82623700661269
C         8.97264523446833    8.25786097369997   12.45681148567191
C        11.80629254432342    7.27826816933996   13.99974321857118
C        11.95864342470909    6.60595035005075   15.21277256290295
C        12.53514373414173    7.27218271682387   16.28667332036018
C        12.97851553532505    8.57472197598818   16.13329861877818
C        12.85775584595383    9.22254191136511   14.91304447739643
C        12.26210587313338    8.57938102861629   13.84231094262332
C        12.12368482616892    5.67993428428243   11.64522145053188
C        11.70554825963343    5.08093401797488   10.45867718853385
C        12.62435308366344    4.48615173476554    9.61631009113030
C        13.96705411732541    4.46045228108716    9.96095904133809
C        14.38557395597589    5.03405146550887   11.15025774787070
C        13.47038041465358    5.64206889590918   11.99077782072379
C        10.07968638072580    1.29032036054217   15.83821581114620
C         9.40416816510587    1.72146493678366   16.97580405899690
C         9.06074577925901    0.82780801332837   17.97313793796184
C         9.39164588370850   -0.51051140422534   17.84154331477406
C        10.06619755584003   -0.94752381276847   16.71298130260990
C        10.41065585791685   -0.05447268064216   15.71477908248571
C        10.65382515264901    1.60609291563075   13.06402521664441
C         9.66962885400926    0.68189563265192   12.72205163240193
C         9.68394681723979    0.08100049083258   11.47638640239788
C        10.67299703124683    0.40118814113800   10.56015155268186
C        11.64372004975780    1.33480271197192   10.88910229581080
C        11.62919687001103    1.94399484765603   12.12915303982698
C        12.28884611673294    2.84135927211933   15.04659104451436
C        12.61805144420713    4.18820048421303   15.25327281272590
C        13.95598359010414    4.52187381625333   15.43171500935977
C        14.92955376857767    3.53725874322138   15.42556457211678
C        14.58667853106687    2.20463152022737   15.26894930873569
C        13.26069670655484    1.85461306295996   15.07989039334995
C         6.76141305124165    5.45743525963840   13.64811736826062
C         7.15158424266549    6.16488211553323   14.78112668041245
C         6.27145501159497    7.03612552644071   15.39639765096359
C         4.99559885189560    7.19977117178707   14.88119693990016
C         4.59684287284158    6.48288255573791   13.76337372887733
C         5.47264684441537    5.60635116639046   13.14934809299933
C         7.03518478742144    2.77098155111610   13.13662093554837
C         7.00777909611593    2.26454345810956   14.43282929789227
C         6.33524792601808    1.09420721509370   14.72185460857697
C         5.67553096892197    0.41581568449922   13.70852343233831
C         5.68082252903880    0.92459490489313   12.42080428323792
C         6.35312779946476    2.10006006635303   12.13094246780368
C         7.91551709213298    4.60878060133542   11.15021255549714
C         7.48147588078376    5.80487538153121   10.59043009175757
C         7.58991299982393    6.01204564347483    9.22645549081475
C         8.13297427676964    5.03279050704695    8.41150512593421
C         8.58635259189201    3.84513541251381    8.96608632901557
C         8.49275768207003    3.64012522449818   10.32929159407476
H        11.25623341195602    7.58463936416125   10.05179012899635
H         9.99393458905962    9.36603119204948    8.92225000167948
H         8.08357558014690   10.44314368681812   10.04614882665384
H         7.43669178423920    9.73906668231336   12.32475325153004
H         8.69246041973560    7.92984467881510   13.45052782160269
H        12.62219253552979    6.77295123828224   17.24095022910596
H        13.42292355535278    9.09114092690172   16.97243706928136
H        13.21188981948080   10.23764949817228   14.80378032115297
H        12.13402808195724    9.08595886410844   12.89534720791649
H        10.65426985910589    5.08801899163954   10.20654235394915
H        12.29226232737736    4.03734272188486    8.69080981468963
H        14.68617919425453    3.99022028095412    9.30561161458746
H        15.43052890903842    5.00703590967201   11.42471949514798
H        13.79762194414820    6.08844961393107   12.91929019593190
H         9.13773106726117    2.76804501278023   17.06865879330377
H         8.53291538296363    1.17238676005926   18.85091845429152
H         9.12260585575442   -1.21363397067038   18.61626777353619
H        10.32408435565969   -1.99203398951721   16.61020734934953
H        10.92606192566378   -0.40596352262508   14.83206821237495
H         8.89185177892922    0.43622085616550   13.43244635498030
H         8.91591684317792   -0.63466435699795   11.21881562352250
H        10.68210941419060   -0.07102433898629    9.58832701308870
H        12.41028117801996    1.59594195913140   10.17416130434479
H        12.37214060080286    2.69008732520447   12.37942036717791
H        14.24275657016257    5.55382960810374   15.57402711707034
H        15.96638391233367    3.81346657946783   15.55434400310170
H        15.35192694398773    1.44216086550679   15.27534044118709
H        12.98514790944590    0.82054467465508   14.92934495898246
H         8.16474482156699    6.01978797075723   15.17190841088637
H         6.57715809279386    7.58813436776618   16.27349516135622
H         4.30602960028130    7.88342332412351   15.35504778340144
H         3.59691877179945    6.60702884680637   13.37255096987185
H         5.16351947123979    5.03757425377200   12.28282790772546
H         7.53322628612606    2.80453805334411   15.21170877608182
H         6.33106442368522    0.70590886924794   15.73052881240524
H         5.15642741239394   -0.50695731858515   13.92347582477031
H         5.15970291506734    0.39972450908101   11.63287955585182
H         6.34977414328859    2.48582131298133   11.12161339862370
H         7.06424051920063    6.57664243600339   11.22144544321081
H         7.25278291417935    6.94583375830019    8.79978158602618
H         8.21289952733368    5.19788944430858    7.34684829306681
H         9.02570614446729    3.08421149825485    8.33677035400144
H         8.87649930019852    2.73149381351580   10.77554721941097
H        10.94730779650357    4.18854845294907   16.91693322422385

