104
CSD_code = RASDAT | q = 0 | S = 0 | Stoichiometry = C55H44OP3Rh | MND = 6
Rh       -0.20622156388266    5.38573968958378    7.21825622206099
P         1.10192384361647    3.44043657383027    6.84614171776753
P         1.52947735106471    6.85984569875213    7.28022629979754
P        -2.24521865174207    4.49199376330886    7.01753375166760
O        -0.28914966945798    6.65707325450579    5.55551702376244
C        -1.11918790185752    7.11980022247364    6.47550414618102
C         0.67318277160495    8.45065447620999    7.46267483949205
C        -0.69722953124942    8.36243955653132    7.18392015087608
C        -2.57016091912908    7.01781381068831    6.07980509814207
C        -3.25450314955734    5.82624950345662    6.30734296034786
C        -2.58005024382463    3.23314378037181    5.73665049770041
C        -1.93578697225829    3.45221274408131    4.52115955104060
C        -2.11693198297439    2.57974660240610    3.46642223219921
C        -2.95075517196717    1.48179683244030    3.61764666700104
C        -3.60758370767248    1.27164699768367    4.81825850846397
C        -3.42821527263171    2.14371176010172    5.87906946678643
C        -3.19026877883278    3.90289380700855    8.45211913699015
C        -2.83821046370098    2.67690575948860    9.01076220579191
C        -3.48825599953897    2.21472970577824   10.13877352901050
C        -4.48475230387406    2.97892602331379   10.72638471298136
C        -4.81896815606827    4.21110688194973   10.18955126568070
C        -4.17149110869477    4.67776828903545    9.05883740838233
C        -4.56808776131620    5.66031976177323    5.88256559224817
C        -5.20920808407300    6.69874832266170    5.23529172447117
C        -4.52246501327777    7.87450796457238    4.96845623846810
C        -3.20895857899407    8.03217795562551    5.37336832696905
C        -1.52245493505361    9.41757558792558    7.55450689294307
C        -0.97055060775069   10.56086540290148    8.11153460783864
C         0.39625592104398   10.67147379031752    8.30285415091992
C         1.22352971414294    9.59967547243216    7.99921616290861
C         2.74108153271201    7.02580220363907    8.64266022920384
C         4.11557148160921    7.13722234825838    8.48688610209287
C         4.93025365708077    7.26521084692257    9.59962662224739
C         4.38198302089924    7.29338823874865   10.86951977625236
C         3.00817549899820    7.19174943559754   11.03088150475430
C         2.19597374309182    7.05218475830674    9.92404604472512
C         2.57179968815249    7.05620808753667    5.80161019605880
C         2.40681661315789    8.13363443326274    4.94039113666761
C         3.17639701888984    8.22673923125640    3.79434545675809
C         4.10990769954401    7.24746590504503    3.49800971673386
C         4.27521755893996    6.16920695446617    4.35219743327885
C         3.50797042079145    6.07238893041388    5.49777377015937
C         1.64629121874216    3.03306056694447    5.14592886043146
C         1.52883141196245    4.02064642177620    4.17517891872301
C         1.94170967428816    3.78048497000205    2.87655323318094
C         2.46875317846346    2.54675605474952    2.53621703906759
C         2.58050905271174    1.55340320813553    3.49731038251095
C         2.17408970773707    1.79156713375724    4.79689087897404
C         0.42887835255883    1.81964047117946    7.36764675453556
C        -0.32132177033036    1.06241468450725    6.47003902849832
C        -0.91429414049416   -0.11958013163914    6.87287457529759
C        -0.77205791402689   -0.56204331489146    8.17790771914751
C        -0.03256047814609    0.18766466271905    9.07795244240630
C         0.55927466251614    1.37291497535334    8.67944311998471
C         2.69060439760336    3.41266974265683    7.76440319865163
C         2.66025237395905    3.86840602295245    9.08063044606078
C         3.81042608534566    3.89056841085641    9.84688348624291
C         5.01412334512112    3.47890157013343    9.30064204538182
C         5.05723706031416    3.04075252519822    7.98802555144864
C         3.90449176138181    3.00215997262730    7.22282019829804
H        -0.32778356179640    5.17782170918285    8.75152991513677
H        -1.28585833472514    4.31331303625228    4.41900367899597
H        -1.60569312473298    2.74976571645367    2.52969857244645
H        -3.09028080093116    0.79206835553075    2.79780931639041
H        -4.26506357726481    0.42136768117236    4.93190459083083
H        -3.94347588117863    1.97095246805183    6.81313363081104
H        -2.04929090133844    2.09650768632184    8.55345772288479
H        -3.21479892511211    1.25912806010393   10.56266645880700
H        -4.99388160124922    2.61804915050214   11.60820286596472
H        -5.58554047534419    4.81325727728112   10.65594539194663
H        -4.42389780367972    5.64516107619341    8.64646676933974
H        -5.07459702789704    4.72157225674729    6.06325088914530
H        -6.23536727554729    6.58752012800235    4.91626470158681
H        -5.01333825118588    8.67125204545538    4.42815765580801
H        -2.66999499869561    8.93428966916615    5.12199810330537
H        -2.59266128025984    9.34826815329046    7.42687494258665
H        -1.61912327850475   11.37723675824615    8.39580784394609
H         0.81506227631854   11.57421246701570    8.72258824101280
H         2.28498201330563    9.64892323425915    8.20214862020210
H         4.55617410269174    7.13122061434624    7.50026031112933
H         6.00015737646890    7.34743270564685    9.47084280550306
H         5.02307556858155    7.39448475793877   11.73339688938933
H         2.57593028957138    7.21711670282076   12.02104511446846
H         1.12183548050877    6.95816451277615   10.03261177412034
H         1.66726333437272    8.88945862265319    5.16363518042330
H         3.04244863094838    9.06473168896538    3.12523610841726
H         4.70555597982018    7.32180006077740    2.59959919299322
H         4.99788167916758    5.39908927968750    4.12227783688463
H         3.62553955133819    5.22871683149162    6.16463537360745
H         1.10791906490944    4.98165602797183    4.44172625993820
H         1.85046432446895    4.55781950142526    2.13170242486860
H         2.78984912296724    2.35387511609308    1.52266176419451
H         2.98812492641281    0.58822134891546    3.23155401206436
H         2.25779806091159    1.01153907633422    5.54165617504682
H        -0.43580202053792    1.39760277851069    5.44906329079487
H        -1.49176436683935   -0.69466953800545    6.16350039595442
H        -1.23608175248551   -1.48558264506164    8.49174672680896
H         0.08198732040643   -0.15044849043383   10.09786651813567
H         1.12766446244200    1.95275215023889    9.39108252053886
H         1.72471620384580    4.22538894589645    9.49026139584323
H         3.76999280295435    4.24395423142743   10.86671131893240
H         5.91711444674005    3.50680795954606    9.89256620002383
H         5.99564050410311    2.72687514532587    7.55320661879277
H         3.95942873052457    2.66245637346324    6.19839692336555

