106
CSD_code = RASDEX | q = 0 | S = 0 | Stoichiometry = C55H45ClOP3Rh | MND = 6
Rh       10.38465954386972   15.96722717149119    8.25759889720554
Cl       10.18767210049521   16.50348408760003    5.91329551999012
P        11.31430085867164   13.91498369486598    7.87870542407604
C        11.83643035369119   13.32838971973299    6.23997010187973
C        13.14419022762592   12.93557286416333    5.98446885396097
C        13.48777115461906   12.48216408900742    4.72394435180423
C        12.53498172811379   12.42372085768409    3.71922151428771
C        11.23284385290064   12.82382545200795    3.97189913755246
C        10.88192151861580   13.27765083656477    5.22968580779014
C        12.81296164181042   14.06755936847926    8.90071393182189
C        13.17760643627350   15.40549710277030    9.09089036308755
C        12.46508645584268   16.35499992927829    8.15393217500259
O        12.91682491685452   15.91964762551963    6.87550282185186
C        12.85008303116901   17.80123176313344    8.36734251520161
C        11.91227483859572   18.72754076685621    8.81192392441075
P        10.20943029647283   18.11446830523464    8.94551739378483
C         9.76496672348790   18.32247698758590   10.69659681839712
C        10.70591478970320   18.63019906030195   11.67100267601911
C        10.32700136441210   18.70060656780893   13.00055792029141
C         9.01389561999313   18.45709419682585   13.36715090951620
C         8.07522447526798   18.13011401607698   12.40117236370043
C         8.45005488916000   18.05703866550127   11.07317173550853
C         9.34274532972827   19.50163233526925    8.13407726085753
C         9.71367347611008   19.76523437303269    6.81643669051185
C         9.14227245390970   20.81852739240074    6.13045802234535
C         8.19711135718736   21.61944688770262    6.75268705830011
C         7.82741174181296   21.36102234258721    8.06143723570716
C         8.39628787720479   20.30690498224921    8.75486535192839
C        12.26751044792686   20.05658940453170    9.02304491583668
C        13.56539440177325   20.46175928969521    8.77992939027092
C        14.49722519584455   19.55129899889995    8.30012917369684
C        14.14502220680957   18.23102653219556    8.09202238336797
C        14.16957876569776   15.71428055715285   10.00328874974748
C        14.80344170748982   14.69117646892261   10.69656346284677
C        14.46949238035039   13.36782025025679   10.47132551740895
C        13.45844918221377   13.04870692136412    9.57509179210673
C        10.59364601031177   12.39617857025999    8.59246678458835
C        10.47521660515042   11.19965267192377    7.89549847931836
C         9.89477441055411   10.09943082373844    8.50392589114742
C         9.42542573873297   10.18381284433756    9.80377495322214
C         9.55186145825990   11.37165755035212   10.50771933552891
C        10.13660127378105   12.46833819698778    9.90578465927227
P         8.07115792070998   15.45218668751236    8.22868337981255
C         7.60672231834076   14.27703635326358    6.90505043030244
C         7.25215799227903   14.69239423393183    5.62621317061792
C         7.02782964411720   13.75934701097577    4.62840574709065
C         7.15657182421866   12.40616679090270    4.89132235931792
C         7.50636078544503   11.98522887124456    6.16435196799454
C         7.73433960446841   12.91259614934194    7.16284465974837
C         7.29220871629185   14.64151922519854    9.67310739291481
C         7.86921811830834   14.78871934195248   10.92774884120114
C         7.29022975606311   14.20752118438448   12.04220648084096
C         6.12651186137339   13.46981837386097   11.91214761709359
C         5.53594513912836   13.32898681751528   10.66579746561399
C         6.10908217894316   13.91505450492304    9.55322700400183
C         6.88763991461886   16.82159981018624    7.93197111243270
C         5.77606689599573   17.04538110553577    8.74027110717051
C         4.92311549790657   18.10238299078467    8.47711200019232
C         5.15813162134117   18.94238162827125    7.40200524328112
C         6.26729880673545   18.73428147869263    6.60102229441652
C         7.13621962460371   17.69410405211295    6.87397351134027
H        13.88620784162461   13.00134593204707    6.76736216980280
H        14.50475492281689   12.17759331424001    4.52163860355393
H        12.81060497795285   12.07272099224167    2.73511913720314
H        10.49036715367831   12.78862548469158    3.18792772926403
H         9.87161773878054   13.60375755692653    5.43156283142255
H        11.73413840741354   18.80699133900645   11.38841588198475
H        11.06192879049008   18.94270095969880   13.75465410543437
H         8.72324220910427   18.51296572444549   14.40595253183530
H         7.05278926388838   17.92393572178122   12.68388798442541
H         7.72770524345213   17.78279954410671   10.31404554405755
H        10.44039602298242   19.12694911658427    6.33239591579095
H         9.43209275281094   21.01492959603448    5.10853482924098
H         7.74888903960889   22.44425672441187    6.21773184122125
H         7.09352908703120   21.98552858881259    8.55009409367541
H         8.10630579425395   20.12351839836338    9.77890983792938
H        11.52178337509306   20.76291031276669    9.36317827212955
H        13.84957148120819   21.49113981712816    8.94323019240367
H        15.50438213803004   19.87778695184010    8.08485495096202
H        14.86119272883859   17.52125393306435    7.70436132697151
H        14.44982052427601   16.74191082326168   10.18380210414375
H        15.57277676293111   14.93484411338339   11.41520537424110
H        14.97949606054953   12.58137264416557   11.00844747772419
H        13.16534171975884   12.01886871496555    9.42069128473691
H        10.82864788827312   11.12816066251561    6.87685841746880
H         9.80575153853404    9.17141960573785    7.95715162564435
H         8.96319893576125    9.32546043307383   10.26910202912747
H         9.18861212264493   11.44313488414541   11.52276770074125
H        10.24055331636841   13.39937019630018   10.44558949482061
H         7.15402334304438   15.74309811116048    5.40210142547449
H         6.75606388726435   14.09509882113824    3.63816658427138
H         6.98588001200963   11.68187415118466    4.10828879912150
H         7.60867355751685   10.93190890494295    6.38226716410270
H         8.00464986889224   12.57872318589538    8.15461601662708
H         8.77763254801932   15.36666323868671   11.02834117287031
H         7.75055342366375   14.33132542328339   13.01195676728337
H         5.67545493397243   13.00831182815958   12.77856849592750
H         4.62129168290477   12.76307451880547   10.56178452252571
H         5.63610997438266   13.81240885510480    8.58619013149468
H         5.57233062637771   16.39846556578518    9.58163190984843
H         4.06675242887128   18.26640109797772    9.11575806941572
H         4.48361392106727   19.76018643728344    7.19515139001087
H         6.46639149684969   19.39046970942396    5.76672749287181
H         8.02344994600948   17.56934464363196    6.26964029836538
H        12.34811524040809   16.32984024735280    6.19597346028870
H        10.56366821125200   15.64925604141922    9.71880896088562

