93
CSD_code = RASFOI | q = 1 | S = 0 | Stoichiometry = C48H40IrN2P2(1+) | MND = 6
Ir        2.00372226392880    6.03103320524929   14.04063556520667
P         2.46337510331080    3.80379456107556   13.24247630500672
P        -0.15144745682765    5.08196644769255   14.57533846926537
C         1.14587490152147    2.66096417349292   13.88319612356125
H         1.09414448384458    1.76015913234867   13.26442283707359
H         1.48175046111491    2.35612566773353   14.88055321208217
C        -0.22735286799406    3.32548632619146   13.96826339849371
H        -0.89404696856802    2.73601720175527   14.60488191698743
H        -0.68055180982008    3.38332088661559   12.97258067287025
C         2.40375860408934    3.60873560014875   11.43013745392240
C         1.33269115497677    3.08767296160277   10.71570580368016
H         0.46004591365504    2.70428501557044   11.22338844313866
C         1.37829402526315    3.04422212839654    9.33254494795152
H         0.54597416455232    2.62864413204880    8.78440719419659
C         2.48251278236271    3.52869970808215    8.65379788782623
H         2.51242259457716    3.49109899438110    7.57586366159861
C         3.55152587847862    4.05712688148865    9.36096768341543
H         4.41644812110469    4.43261738488676    8.83566412959610
C         3.51126458836199    4.10095120409068   10.74005602278684
H         4.34235653691648    4.51194352627645   11.29932985920648
C         3.98356341893760    2.84292077353447   13.55198498276600
C         4.05708310737870    1.48282992043505   13.26452728328680
H         3.19735164208874    0.96022664686236   12.87049817117089
C         5.24055297752305    0.79853640409784   13.46908592936567
H         5.29369326140900   -0.25664371334620   13.24735420449090
C         6.35861030530254    1.46404585350519   13.94764893869820
H         7.28041571332475    0.92471425601698   14.10206029043528
C         6.29466855569829    2.82077890804141   14.21706663199790
H         7.16651171709095    3.34485325471587   14.57815504350238
C         5.11117579369072    3.51006107008483   14.01967813202108
H         5.05681056940512    4.57169942605407   14.22014812577152
C        -1.77355118105067    5.72831054499090   14.04558253578893
C        -1.85915234001144    7.05156312708856   13.62415743119554
H        -0.96400405445149    7.65762666737668   13.59076982002465
C        -3.08086480702565    7.58784754112250   13.25820625247387
H        -3.14004839313662    8.61569438152890   12.93381480926360
C        -4.22320433754800    6.80677349392682   13.31066223608699
H        -5.17667955355115    7.22258002075549   13.02357954306507
C        -4.14392342094718    5.49135857823726   13.74032706791864
H        -5.03572447945046    4.88519956473871   13.79206495920989
C        -2.92665732579619    4.95150466827404   14.11245171519566
H        -2.87953744317350    3.93096904897594   14.46365814725242
C        -0.48029415377281    4.96108668426821   16.36377062855357
C        -0.98126997574638    6.10222933213053   16.98835519270180
H        -1.22109430511678    6.97307392049558   16.39314375585663
C        -1.17676226002630    6.11967512813593   18.35527173260691
H        -1.57448707166638    7.00425627651979   18.82889854271452
C        -0.86340186172434    5.00380062926669   19.11533729450570
H        -1.01775784541574    5.01531918890691   20.18322286877248
C        -0.35427347681063    3.87206412613620   18.50224132940447
H        -0.10940721989637    3.00100140648503   19.09150551461151
C        -0.15526335885260    3.84996889346763   17.13292658340020
H         0.24913128419641    2.95966418190206   16.67305380805786
N         1.68197605358353    6.50914617288296   12.07447423135980
C         3.79149320042281    6.89469121155663   13.59118545578377
C         4.88030165510736    7.10949484404088   14.42877446661917
H         4.83494986965316    6.81742515812889   15.46986306179721
C         6.03939771015519    7.70715040802046   13.96090057706828
H         6.87025571430868    7.86316206500796   14.63290267762948
C         6.13564937803043    8.10934171909025   12.63741621883165
H         7.04076583284851    8.57352378732041   12.27740843872797
C         5.06814560718819    7.92239656889478   11.78505244063626
H         5.14741576550483    8.24707611849216   10.75909738141322
C         3.89657042916063    7.32246748148773   12.25172389377535
C         2.72350768286296    7.08460496754964   11.42706978444197
C         2.63149459699815    7.38848999761034   10.06738747486551
H         3.46657705001806    7.84871389800227    9.56660789906133
C         1.48049886013283    7.09578490686588    9.36778079464919
H         1.40065441961608    7.32642600542012    8.31720500426365
C         0.42642440560954    6.49464198898445   10.04408113573078
H        -0.49260029291020    6.24245778760087    9.54161305223800
C         0.57728505044807    6.22229144809734   11.38677337403715
H        -0.23139319073230    5.75650831936878   11.93605057861839
N         2.43829978589845    5.73629684280486   16.02325453437288
C         1.54158254439222    7.86983675881268   14.77784309935426
C         1.12893564544948    9.00095381778169   14.08347284529562
H         1.08605188410317    8.99225334071492   13.00197620199094
C         0.77704250804720   10.16333878230476   14.75032239232615
H         0.46116171250075   11.02933030178488   14.18767881137565
C         0.82870463542620   10.21963874743647   16.13490912094744
H         0.54615151231833   11.12458684770982   16.65031315526466
C         1.25446375027358    9.12070957163598   16.85043353147755
H         1.30374765574019    9.17627504114590   17.92686055750028
C         1.61883795964188    7.94949814550217   16.18292614458240
C         2.11705126614333    6.75874869366761   16.85087206165585
C         2.28752007174278    6.63286913115637   18.23099325734007
H         2.01879926676406    7.45069872335705   18.87797480981142
C         2.79763831596995    5.46844076851425   18.76320664612804
H         2.93248811137540    5.36243491889388   19.82803655079200
C         3.14175627075078    4.43710709184195   17.89822822372290
H         3.55708219826539    3.51240257499547   18.26362253050033
C         2.94041138991880    4.61847043694481   16.54660360151735
H         3.20623176158235    3.83205926472197   15.85118289244880

