61
CSD_code = RASGUO | q = 1 | S = 0 | Stoichiometry = C26H25AgN7O2(1+) | MND = 3
Ag        4.38243159455017    0.95578110312423    8.45436475865823
O        -1.49787445146360   -3.01459089993999    6.43904497295587
N        -0.16415936037868   -4.87194058637604    6.50538612962455
N         0.71446770712373   -2.82645964934392    7.00286779706613
N         2.26674700690837    0.34249443089072    7.85379271336154
N         5.76481141373577   -0.84770994286755    8.30540488765156
C        -0.43049407983053   -3.54341659616164    6.62512963889222
C        -1.04844040166325   -5.90928243003701    6.15279245911036
C        -2.38590141320134   -5.69656326114825    5.84276953043623
C        -3.18747089554538   -6.77335257215597    5.50634810527927
C        -2.67323386309568   -8.05794616487749    5.47490158893964
C        -1.33971452359526   -8.26845120063516    5.78363071570739
C        -0.52980343692336   -7.20119841702075    6.12091281744289
C         0.81339092778114   -1.46969861417883    7.22805780908002
C        -0.25444053852023   -0.57481184762506    7.10160747572977
C        -0.02462293185320    0.76243212381989    7.35862356987163
C         1.24063916854269    1.18540280018433    7.73131802450491
C         2.05417560778523   -0.94711576264871    7.60772149139063
C         6.81791271016299   -1.29464720149343    8.41367899218382
C         8.11472931040084   -1.85176969422923    8.54871555431438
O         9.17127265463254    0.64963875004645   10.03218512034896
N        11.05667286057005    1.67161835216583   10.80916355900336
N         9.19754219361996    2.91449421800510   10.36240100950648
C         9.77040132592421    1.64847021738889   10.37752596172674
C         7.91398444284458    3.26285095877239    9.98095752833064
C         6.95889431752913    2.33400229691608    9.56076251947480
C         5.38420219552385    3.96014653037921    9.21666404800557
C         6.25888758503208    4.95496693072585    9.62447357983176
C         7.53806711670495    4.60896413869089   10.01086506781415
C        11.93251825588063    0.57581960437196   10.95207272408467
C        11.48263111209028   -0.73212805933731   11.07849096282280
C        12.39777622160566   -1.75957143630577   11.22718304657973
C        13.75590955157360   -1.49607198700068   11.25875766025137
C        14.20285180850631   -0.18978649287148   11.14747787875350
C        13.29763085872371    0.84311455367624   10.99582722890009
N         5.73043601887626    2.67539099861920    9.18709685976846
H         0.51155390867382   -7.36926476012961    6.36164808241565
H        -0.92695864285989   -9.26561420893858    5.76260326872576
H        -3.30580476182148   -8.89129708245011    5.21173062747410
H        -4.22558943676519   -6.60160377275447    5.26668577304322
H        -2.79166524153015   -4.69995144215718    5.86592421514667
H         0.77512086135220   -5.19383838978419    6.69403062317987
H         1.57285995938428   -3.34309557402796    7.13454633566509
H         2.91167195831455   -1.60122663418785    7.71663526222094
H         1.44132156810411    2.22689504521046    7.93852818332649
H        -0.82679929698783    1.47713182237010    7.27027470727235
H        -1.22716311312612   -0.93457631820930    6.81029830915516
H         8.07038620669696   -2.76004457519605    9.14817482046735
H         8.74990946046328   -1.11554884705939    9.04812938212192
H         8.52671427801432   -2.08055591646537    7.56687732862282
H        11.49921548326082    2.56739838462936   10.96146859316700
H         9.76870880709007    3.69054815952353   10.66902151440496
H         8.23960798437342    5.36518776408301   10.33252556429904
H         5.94049004158721    5.98470238157837    9.63782820557975
H         4.37727683126805    4.20010608290992    8.90770170498502
H         7.20537483958436    1.28423771448869    9.53227634838172
H        14.46307698300918   -2.30203959495078   11.37586358954210
H        13.64935866929764    1.86188735880806   10.91148397392867
H        15.25923961475495    0.02747175286238   11.17922044663453
H        12.04239683945628   -2.77390763540051   11.32685624351126
H        10.42646812781949   -0.94087690627731   11.07109310932756

