64
CSD_code = RASKAX | q = 0 | S = 0 | Stoichiometry = C30H23AuCl2NO4PS2 | MND = 2
Au        4.63359846067312    7.03393340789147    3.63796654807184
P         6.33372537103754    7.92774442123538    4.76563564383033
C         5.88639080552288    8.54433574886081    6.40909456464183
C         4.61081756524690    8.29430028559056    6.90467729162826
H         3.89483670594674    7.73737826699368    6.31344649493766
C         4.26316003395698    8.77814745256102    8.15550414743733
H         3.27379115040557    8.58695204758504    8.54187296636254
C         5.17493265163593    9.50569317301487    8.90217212463016
H         4.89821039649115    9.88096560560101    9.87622098052979
C         6.44309496865704    9.76212070946513    8.40103210364345
H         7.14985140932930   10.33582983044344    8.98232472522279
C         6.80154598776997    9.28699291153676    7.15452802503289
H         7.78511197928933    9.48798165409898    6.75041190853373
C         7.01555012146738    9.41465711403189    3.97618319181674
C         8.37452612733696    9.68719272227418    3.87124587460490
H         9.10091060454641    8.97969126779484    4.24665304450278
C         8.79174873513205   10.86492625639476    3.27498881722303
H         9.84756396236690   11.07503201482005    3.18808416392503
C         7.86174850793169   11.77158383246672    2.79385663497454
H         8.19321685356768   12.68846471100663    2.33024036334202
C         6.50539968631023   11.50358901673255    2.90257617456013
H         5.78196749887190   12.21004228486239    2.52542070257417
C         6.08154431884932   10.32494124140927    3.48619551044165
H         5.02607698711302   10.09351841594204    3.56578373894149
C         7.75854981292601    6.83698238965806    5.01154146489214
C         8.37895931146653    6.35874644105495    3.85761717366846
H         8.01854248623721    6.68900464247450    2.89149785174813
C         9.43688168656525    5.47666642779073    3.95577828770627
H         9.92111201764455    5.11242949321645    3.06225855402321
C         9.86973258987534    5.05320495837698    5.20396686959132
H        10.69470647379988    4.36116442816038    5.28115222024629
C         9.23941406545230    5.50766190596041    6.35003820421765
H         9.57029454143308    5.16721376167856    7.31992376044239
C         8.18066118735084    6.39570171124120    6.25986624886279
H         7.68298037682086    6.74439376666741    7.15361419856244
N         2.96436081318908    6.39382350116240    2.64790370366084
S         1.73069184628813    6.94141850642050    3.54668658783516
O         2.20475280830832    6.90786428769620    4.91735642401634
O         1.27243719753047    8.22790719148973    3.09750628642712
C         0.44182704062152    5.72830669604421    3.37312721706488
C        -0.85535393436710    6.12343185016680    3.11823864758745
H        -1.06933605948852    7.17581116751888    3.02554333705148
C        -1.84198355640928    5.16458165688415    2.96756967617332
H        -2.86224598386634    5.44751837433647    2.76011659483363
C        -1.50068902367213    3.82430634520628    3.07658522479988
C        -0.19594165088917    3.42790014668592    3.33481350965865
H         0.04616743801501    2.37907616028380    3.40845433930707
C         0.78189613701031    4.39529703232820    3.48533248835250
H         1.81059862901702    4.13257271814841    3.67396538921290
Cl       -2.72162403875796    2.62491574567083    2.88405697754014
S         2.63669018161042    6.50367656732433    1.06189784430503
O         1.23629873339797    6.25972625865583    0.86584282683985
O         3.56922593936358    5.68199815837113    0.34401846127795
C         3.01752483287707    8.21101454318652    0.67827577593241
C         4.34975340439257    8.57228807776243    0.59823084064496
H         5.10091144849999    7.80051550479545    0.66102666557574
C         4.69437185932078    9.89988741498192    0.41308403456464
H         5.72801879930058   10.20195285985068    0.34523359063055
C         3.68234585774718   10.84491819872598    0.32121577221108
C         2.34458985240549   10.48404594732308    0.38218230693720
H         1.57605474380892   11.23646700220348    0.29797072621373
C         2.01348722793835    9.15057159168603    0.55966936313133
H         0.98841136674136    8.82635130813018    0.62226754137568
Cl        4.10320265094660   12.50547086817700    0.11895727143335

