68
CSD_code = RASKOL | q = 0 | S = 0 | Stoichiometry = C30H23AuN3O8PS2 | MND = 2
Au        6.75572116082287    5.89669148032175    6.56014344882755
P         5.03367206670729    5.03127248479155    5.43654363481607
C         5.46699843489116    4.44102632592686    3.77983395228019
C         6.72581657367730    4.72965904946732    3.26257141524690
H         7.44000716483557    5.29436568526105    3.84828587466031
C         7.05917067103596    4.27641036315606    1.99671486075909
H         8.03524784371824    4.49850430507624    1.59347113679878
C         6.14968667821213    3.53972102876349    1.25608701553092
H         6.41534234021010    3.18775051562521    0.27047151398912
C         4.89847461876250    3.24508540830143    1.77809382648037
H         4.19357253636065    2.66479901782185    1.20136833620943
C         4.55406523897313    3.69095076562054    3.03942051757770
H         3.58342549600178    3.46070876981121    3.45838829546097
C         4.31592396866577    3.55465913164358    6.21197533038819
C         2.95023446355265    3.29839732001263    6.26145743301150
H         2.24862330583018    4.01250315953282    5.85275377342288
C         2.49522653231797    2.12913109242253    6.84632608248910
H         1.43445366617874    1.93096306746683    6.88844142068445
C         3.39377182499717    1.21712639491964    7.37494210014594
H         3.03357991737274    0.30793266063873    7.83146995782540
C         4.75713954224656    1.46792133506865    7.32454693152108
H         5.45182699374419    0.75527479471234    7.74354065102296
C         5.21730273095260    2.63702079819062    6.74745830760194
H         6.27780575066597    2.85649767577426    6.70484905859795
C         3.63356009706442    6.15765805427127    5.20905524120449
C         3.02401234092366    6.63461384537433    6.36916628260092
H         3.37925189156661    6.28786032957199    7.33137208238223
C         1.98083313216231    7.53518872620362    6.28177035432787
H         1.50445717161212    7.89845739756260    7.17981258664910
C         1.55187782388006    7.97722541268110    5.03864752497299
H         0.73814914615987    8.68323110203636    4.97012478189609
C         2.17065287812370    7.52206021405247    3.88658533759784
H         1.84202693251641    7.87560868383081    2.92071897215967
C         3.21456813195145    6.61554553526521    3.96569882044617
H         3.70242163393262    6.26490080703979    3.06729279029164
N         8.44022008923259    6.55095933814426    7.53460565918512
S         9.67157559891789    6.11798633582666    6.57637070394003
O         9.15746405477230    6.15694782748665    5.22459720768739
O        10.24135509854514    4.86396618527518    6.98462955407722
C        10.87994210330034    7.41935015862810    6.74466274786596
C        12.20989700716453    7.10253896923608    6.94617232454434
H        12.49303461836255    6.06406429857113    7.00195567812892
C        13.13107398904900    8.12243701631034    7.09489443392331
H        14.17829612759123    7.92237821359878    7.26530007426655
C        12.69181651196897    9.44016991425978    7.03072247040295
C        11.35353174223259    9.75501022047109    6.81970609452592
H        11.05461063777161   10.79176984823970    6.78142233092018
C        10.44064662977248    8.72799232459107    6.67171612137771
H         9.39074433878858    8.91889324690128    6.51804146669911
S         8.85718600090068    6.46359780396148    9.09799552931329
O        10.23013243853021    6.86100295051341    9.22440868127551
O         7.87521955707415    7.15017278931129    9.88297735476654
C         8.70762807675302    4.70972615736627    9.44126712987256
C         7.43064885472890    4.17628541212955    9.47812156389447
H         6.58679710100260    4.84715878216138    9.44412955786984
C         7.26607408781985    2.80764007023485    9.57005936760017
H         6.28617790588549    2.35572215646380    9.59722631449253
C         8.39820677563561    2.00042825272136    9.62210003725982
C         9.68047076656766    2.53900357382763    9.62859757856455
H        10.53158069968844    1.87722565975887    9.68424468896492
C         9.83187430144979    3.91124412208927    9.53627306163141
H        10.80252258064654    4.37738930366853    9.51484311112867
N        13.65029593894120   10.51160575256772    7.18950631493561
O        13.23876438175316   11.64840889100999    7.11737933935630
O        14.80683581627275   10.20710297291215    7.37949290220790
N         8.23166404039113    0.56717714811736    9.65197099260446
O         9.19176183940163   -0.11083277708222    9.93572353025983
O         7.13314958853802    0.12985434260467    9.37488642653314

