52
CSD_code = RASKEB | q = 0 | S = 0 | Stoichiometry = C24H19AuNO4PS2 | MND = 2
Au        1.70847565996522    6.42444722306865    8.61815225060110
P         0.58964330567253    5.02499634603310    9.95811342158032
N         2.59781409145802    7.71958510291710    7.20969271952210
S         1.27930069008453    8.30685857804476    6.47228327601259
S         3.30117021595655    6.65478778502806    6.21284521076121
O         0.16833391944365    7.38413442747552    6.60128725396492
O         1.00218609533105    9.65000536182917    6.88376813413983
O         2.62751005639697    5.37297652867754    6.27957415619871
O         4.71870084111570    6.60990571353522    6.40734105390412
C         1.31911684948140    4.72245048258622   11.58889731706219
C         1.92836976489689    3.51996011581348   11.92843609040500
H         1.92614322122879    2.69795265914829   11.22663715993855
C         2.53343435911216    3.38213999404193   13.16600437628633
H         3.00184353933722    2.44599743019496   13.43140922646685
C         2.54218468169318    4.43955672873995   14.06000323764951
H         3.01388960096304    4.32620453787166   15.02457499653206
C         1.95344265359357    5.64733585265797   13.71547048953413
H         1.96962418029473    6.47461369649903   14.40927028174046
C         1.35081244182208    5.79315794202962   12.48130517019496
H         0.89544218289466    6.73189449876481   12.19327082729553
C        -1.09697806010340    5.59654404701350   10.30903540700513
C        -1.76577116909039    5.30866256480944   11.49519119035957
H        -1.26549651738959    4.75960221543293   12.28152108442159
C        -3.06584067415867    5.74684070833731   11.67230085971421
H        -3.58444829777621    5.52726670966555   12.59416616995153
C        -3.70043231518833    6.46604263145791   10.67232960378009
H        -4.71489673835737    6.80683131159818   10.81730758583973
C        -3.03351686982789    6.75508177825158    9.49212968064084
H        -3.52415466658877    7.32305084098079    8.71647410335987
C        -1.73193156797973    6.32536359773205    9.30569938070745
H        -1.19905136927197    6.56126440530063    8.39294664041231
C         0.31927803182575    3.37903573863851    9.24400057983005
C         0.91565774593085    3.06448338398018    8.02728679357647
H         1.52997789410722    3.79519636567281    7.51781969077266
C         0.70683941194971    1.81294899258646    7.47106081174030
H         1.16985027803147    1.56735781139806    6.52743029094127
C        -0.09244275918212    0.88490871615798    8.11736736487574
H        -0.25287369533631   -0.08912401552715    7.67906348348386
C        -0.69347100130161    1.20362266137282    9.32628552363242
H        -1.32100729817464    0.48068566939586    9.82676868718080
C        -0.49225016586127    2.44831661564201    9.89101648393353
H        -0.96137176001803    2.70498151484679   10.83112600846773
C         1.83132840953744    8.25826512692268    4.76828429134503
C         2.89281472810524    7.39505148745052    4.63324435971533
C         3.48151961534840    7.16977751259373    3.40550822298141
H         4.31612365093255    6.49176877605205    3.32342039046485
C         2.97396284317367    7.84701797007171    2.30366987072137
H         3.41900667592336    7.69438369045889    1.33188460288573
C         1.90170132584236    8.71815361228226    2.43970791281146
H         1.52054229255387    9.23592110407759    1.57235945479716
C         1.31395835423155    8.93187816716299    3.68037981313812
H         0.48303531736657    9.60735728320895    3.80797700673244

