56
CSD_code = RASLII | q = 1 | S = 0 | Stoichiometry = C23H26CuN6(1+) | MND = 2
C        -1.76343283075976    7.97548026699098   -1.89123707221898
H        -2.12227294968696    8.06548673271774   -0.86816502081752
H        -1.47350235928160    6.94178450220115   -2.07542774898778
H        -2.56669814721404    8.22454032077436   -2.58051976360930
C        -0.60853751952887    8.87964100020679   -2.10298156123385
C        -0.01654758557034    9.27861887265341   -3.30619446119257
H        -0.30809937542045    8.98735026582539   -4.29336012620348
C         1.01879524899755   10.12635093242439   -2.96432221949305
C         1.97858920008073   10.85891462938195   -3.82376241210045
H         1.88931692024945   11.93486213616010   -3.67740530970242
H         1.77454024146055   10.63360110150656   -4.86607078004123
H         3.00646815442891   10.56906059539988   -3.60491435232468
C         1.84809541232591   11.01549250386054   -0.75186105702797
H         2.81289600175046   11.18715263268675   -1.24993747705604
H         1.35655600263769   11.98637617545990   -0.59949940260070
C         2.98949911734846    9.35895919204074    0.64738111198157
C         3.53522532363473    8.72806141395302   -0.44269200782947
H         3.23818179743542    8.98052701141740   -1.44759374330233
C         4.48832881380648    7.71336791240362   -0.27247483781170
H         4.91284077240774    7.25049652815508   -1.14979714544724
C         4.86966839354041    7.31266495295402    0.97495668068931
H         5.59937748060994    6.52876856139517    1.10362427433307
C         4.29434415072491    7.90089754720079    2.12067531852170
C         3.35711277378448    8.95194988273173    1.95751211397300
C         2.75119864139989    9.51915324342744    3.10847621571068
C         3.04552499012949    9.02778961787547    4.35777931000424
H         2.58379000956716    9.45189868304581    5.23438198208670
C         3.97368621305756    7.99188939515137    4.50891775214034
H         4.19790694208375    7.63314858854759    5.50150172434295
C         4.59637860429531    7.44754236359455    3.42058992196911
H         5.31517505383449    6.65188767304218    3.53796562179054
C         2.04401293090169   11.28866146053408    1.68136046411127
H         3.02645054355636   11.79367954895521    1.71035140111474
H         1.26193611638602   12.04377790680592    1.57146573212927
C         0.66671921329889   10.69993859013916    3.69299567182661
H         0.02254354456020   11.45668823460199    3.22860362500944
H         0.89806098060104   11.02090882522361    4.71606265432382
C        -0.34730700643155    9.38458902751801    6.28906342095611
H         0.69888964386348    9.49858355683878    6.57025145221082
H        -0.81603437842145    8.70949522283105    6.99892639437419
H        -0.83257355994382   10.35687567865080    6.36542996253031
C        -0.48522419776848    8.82600447173067    4.92299587115317
C        -1.07502443266520    7.64433037969282    4.52187462759230
H        -1.52410113772390    6.90428522181084    5.15025154386340
C        -0.96854117082652    7.60911320241155    3.12948445478983
C        -1.43298533498199    6.56090585653647    2.19076646915543
H        -1.10997190965408    6.79941776701224    1.17850665859888
H        -2.51909726909560    6.48715811890744    2.21316796952225
H        -1.02626420682099    5.59353925000210    2.47799716433119
N         0.03037759509300    9.45828130665656   -1.09027802083587
N         1.02243439142102   10.20183277360913   -1.61620958044799
N         1.99711747098288   10.37340367483941    0.53668635832743
N         1.86034317251169   10.57989464494301    2.90775218266989
N        -0.05768033105677    9.44856449201368    3.80188576479002
N        -0.35634904732617    8.71440960118458    2.70991579161551
Cu        0.06676288740822    9.18294595136840    0.86524643774518

