47
CSD_code = RASMUV | q = 1 | S = 0 | Stoichiometry = C20H16CoN10(1+) | MND = 6
Co        1.59565079401117    1.71048097127287    3.02100287450456
N         0.86056642893429   -0.04644323014615    2.88462113616056
N         2.34091677855018    3.46396777054381    3.15157068950174
N         0.70404947500365    2.22170676880271    4.68666310464040
C        -0.64435045906339    1.12097372543579    1.48976567931442
N         0.04977670176445    2.18973431940537    1.92473015037820
C        -1.70969883564162    1.25484117235125    0.60259357533226
H        -2.25113882920558    0.38761555643857    0.26395312612271
C        -0.17164049885645   -0.15545981818027    2.02349948902607
C         3.18866579473487    4.01766804960827    2.28907527526708
H         3.36662505535717    3.46469304686570    1.37700649681602
C        -1.34181148460937    3.60827427428446    0.60830951365063
H        -1.57914217326464    4.60816975897623    0.28407319034799
C         1.37262327895355   -1.15077973200273    3.42097285328090
H         2.20611085629404   -1.00921863039085    4.09516821689318
C        -0.70125250728344   -1.39628360418559    1.68086788298159
H        -1.51586033384307   -1.46692596633002    0.97985884452569
C         1.14817813522024    3.39010846806718    5.18778538241264
C        -0.29772509178566    3.39689495300723    1.49113654798416
H         0.28023559800295    4.23379498946791    1.85700332966178
C        -0.14713718754460    1.49929528374739    5.40757976385223
H        -0.48492243402886    0.56728836731897    4.97663161395234
C        -2.06222807367060    2.51405158326304    0.15219401981700
H        -2.87880543479154    2.63944575464942   -0.54105996656337
C         2.08490815341845    4.09644236291851    4.31494087586082
C         2.69591777534434    5.30626162868301    4.63158076846314
H         2.49118271932502    5.79146242421660    5.57100812870925
C         0.89506972900426   -2.41593993606156    3.12556097826688
H         1.35333602120677   -3.27960232322438    3.57825116708311
C        -0.59560665400701    1.88949530679817    6.65687818374171
H        -1.28212137835455    1.26333862884604    7.20260748827663
C        -0.15736582634416   -2.54310148323413    2.23244574347143
H        -0.54279594665199   -3.51400173789144    1.96445035795657
C         3.83140067940312    5.21782367350399    2.53913472012079
H         4.51885107304806    5.61783529129327    1.81228595294843
C        -0.13948765652772    3.08825429290834    7.18529845331106
H        -0.46052281288175    3.42083312305691    8.15967450185683
C         0.74063259300182    3.84950945467698    6.43777018427661
H         1.11212828653293    4.78345273511860    6.82448540249796
N         2.53599744015149    1.37090243608810    1.45095616288746
N         2.75561097146126    0.34696068007865    0.91617802477200
N         2.99855702482072   -0.56622852880258    0.29499802815667
N         3.01829942063460    1.08820177688010    4.04826957986648
N         3.97470634941532    1.65615029032043    4.42816678553525
N         4.90995058606639    2.10825379566383    4.87574496132160
C         3.58705888328896    5.87196202364347    3.73658203638119
H         4.08420701540527    6.79924025224957    3.97322872437740

