47
CSD_code = RASNEG | q = 1 | S = 0 | Stoichiometry = C20H16CoN10(1+) | MND = 6
C         2.39082519833054    1.73056371940852    7.47085034041856
H         3.12187904739876    0.93485752279520    7.51213344677704
C         1.54782510144559    1.98746888628632    8.53823075142824
H         1.61141851759201    1.38241604715750    9.42744711731406
C         0.64791623520106    3.03753528852198    8.44352555334916
H        -0.01104318335282    3.27847411908986    9.26250972613895
C         0.61646004662499    3.78079021217243    7.27656045650427
H        -0.06939500051388    4.60541332301479    7.17868409382666
C         1.49312650328578    3.46631567649022    6.24211505828840
C         1.57109943342757    4.19213575142167    4.97531295817219
C         0.75110714129018    5.26474178753298    4.63317551765258
H        -0.00653112192870    5.61257562188521    5.31500042768212
C         0.92426821981201    5.88684544898296    3.41017165631367
H         0.30579055918969    6.72434810274482    3.12883563651703
C         1.91066604320034    5.41282875216848    2.55772867075822
H         2.08317685445903    5.86641637150776    1.59558205339820
C         2.68416344999529    4.34072857267267    2.96561156552494
H         3.46103549376578    3.95647807276815    2.31977315929481
C         1.62731529141141    0.30414051299678    4.20829652457590
H         1.05320545338469    0.69700225881020    5.03562087610782
C         1.17054193483874   -0.79809741291376    3.50790696727881
H         0.24141021050771   -1.26690879573445    3.78749849117984
C         1.93242558722473   -1.28228160497738    2.45462467671101
H         1.61226166513847   -2.14411806693935    1.89086700709961
C         3.11624122002767   -0.63869397925062    2.14271788342599
H         3.72839566412136   -0.99445207616354    1.33121382278686
C         3.51140247058295    0.46490679056644    2.89478548745347
C         4.74601950882612    1.21576078764088    2.67116711412919
C         5.68650556548729    0.91015471292265    1.69164190645687
H         5.53328904649825    0.07424825873648    1.03005856061145
C         6.83299931617580    1.67818286267737    1.58743876975109
H         7.58117188877206    1.44495764330393    0.84659027695402
C         7.00072329636255    2.74315701292821    2.45876570707808
H         7.87777963794395    3.36767114244165    2.41806778277195
C         6.02489550742447    2.99034082695640    3.40882814448985
H         6.12607026339215    3.79798299916156    4.12073830649350
Co        3.64595099499766    2.34707162838703    4.93276322270702
N         2.37234639196977    2.44958929628999    6.35191248448615
N         2.52714063756262    3.74112520044046    4.14115327536212
N         2.76672212901780    0.92377367257829    3.91867104436588
N         4.92696582025078    2.24779569430439    3.52032032603195
N         4.61566271437641    3.68612757439525    5.78836290352307
N         4.52398762118332    4.09062509412749    6.88861295120827
N         4.50507971116574    4.58322750748327    7.90618324380249
N         4.61110967649128    1.03000808201189    5.82705915464671
N         5.66194744908885    0.56778935677826    5.57403048742577
N         6.64204478655092    0.02777974341762    5.41005441172611

