45
CSD_code = RASQUX | q = 0 | S = 0 | Stoichiometry = C22H15CoF3O3P | MND = 5
Co        1.89343646120550    2.18853560421915    1.12712813312371
C         0.96000755094263    2.91403417004395   -0.39962152056005
F         0.01970490198413    3.84150501056406   -0.08779025337239
F         1.76250707897099    3.53928211084024   -1.29801033721284
F         0.28981034707875    1.99067156859143   -1.13462902930972
C         0.31561396099256    1.58693460950399    1.77879438180072
O        -0.66132098948630    1.21315098489914    2.23619884460472
C         2.48318808383612    3.85252332563858    1.53608359087138
O         2.90243387601480    4.87810874747847    1.81089477242821
C         2.86883697343242    1.15573076183248    0.00338379379063
O         3.48035125738971    0.48121618986879   -0.68520739902552
P         2.96640480261097    1.35218786923091    2.90290343582799
C         2.02389940112887    1.36659311451596    4.45852435575779
C         1.32780351884060    2.52989205436754    4.78047084569651
H         1.35931072337178    3.37433583928203    4.10327431743979
C         0.59893542419116    2.59991063038896    5.95195975859978
H         0.06119665747669    3.50321425201413    6.19802630669756
C         0.55205405328372    1.50696310483580    6.80384127696808
H        -0.02432397589777    1.55830371853313    7.71529104382493
C         1.23858398387697    0.34766667843908    6.48381485167046
H         1.19945863461115   -0.50474318620973    7.14575258374679
C         1.97590158164697    0.27205322207141    5.31466684945143
H         2.50976254262391   -0.63457856152037    5.06744046814965
C         4.50670030185124    2.21422397219464    3.34183934163065
C         4.79108250450225    2.63783061867413    4.63500785394210
H         4.08698717890269    2.45394701689775    5.43415562131221
C         5.97995178915949    3.29820214620890    4.89429262478263
H         6.19772389537640    3.62960299215342    5.89881155912380
C         6.88470346508401    3.53626144083104    3.87347278282374
H         7.80812431657366    4.05553533977376    4.08139307047164
C         6.60347103808045    3.11386605480845    2.58299614615088
H         7.30623452516731    3.30192828196917    1.78524391286604
C         5.41676697880922    2.45961447156238    2.31553272331970
H         5.18298799412549    2.13740844529842    1.30855164499933
C         3.49386443516949   -0.38264099617447    2.75734834845162
C         4.74167519784066   -0.82069920461881    3.18822673884063
H         5.44277620422753   -0.12076911323967    3.62056491089349
C         5.08202245839002   -2.15600273651349    3.05904823234397
H         6.05279956010975   -2.49366693572920    3.39058073636315
C         4.18549846202095   -3.05563240395124    2.50652948784435
H         4.45841419842891   -4.09524623997927    2.40493202920784
C         2.94010946421863   -2.62178421696350    2.07918519043631
H         2.24113819753216   -3.32129519521336    1.64588258918013
C         2.59533193729874   -1.28913272364260    2.19975650770961
H         1.62917904700450   -0.94004283377594    1.85735687633673

