70
CSD_code = RASQOR | q = 0 | S = 0 | Stoichiometry = C26H30AuB9Cl2P2 | MND = 4
Au        3.43095746121474    4.10315754071283    4.04307431705122
Cl        3.60138380941658    2.77617084256312    5.97392655713570
Cl        4.14003742067068    2.68323508324034    2.30898412933848
P         2.85618281083684    5.84844842565864    5.45920444331450
P         3.32916504866058    5.82298806259248    2.50112192803268
C         2.16061755274339    5.44609501499637    7.06762971873465
C         2.66726389106465    5.98757913562442    8.24344569150635
H         3.50389865935461    6.67155332709144    8.21221061854960
C         2.08878920040313    5.64125588187837    9.45119308050115
H         2.47556351712633    6.05999612424248   10.36836064429046
C         1.02534121185709    4.75453636579046    9.48647872593204
H         0.58543889102025    4.48136913703270   10.43392526178830
C         0.53024917265706    4.20650049148487    8.31259119198833
H        -0.29071461437419    3.50645209541859    8.34555786747447
C         1.09573445022561    4.54848954462185    7.10073885074567
H         0.73290803788525    4.11362489594447    6.17938806621715
C         4.44601186421386    6.65780844994017    5.79522314773574
C         4.56847613676723    8.03843975290970    5.92314687915614
H         3.69650178193916    8.66915475357618    5.82891447833627
C         5.80858897268458    8.59502653926489    6.18238288212270
H         5.89933744649075    9.66602890121774    6.28644381845225
C         6.92617827962898    7.78687150115645    6.30763161947662
H         7.89183588272616    8.22722683934382    6.50543977830069
C         6.80506372180288    6.41162694505639    6.18576487626367
H         7.67276561748324    5.77796145069290    6.28854601997278
C         5.56993004822000    5.84566072578633    5.93388551037186
H         5.46740865398865    4.77154991909777    5.85318228163541
C         3.07453137502967    5.41379895621825    0.76558093400954
C         3.79310486356465    6.04881517257652   -0.24220372858446
H         4.53904688855567    6.79105895359818    0.00620776244989
C         3.54300803237538    5.72142603562823   -1.56232908571757
H         4.09690602631284    6.21229138158374   -2.34871882776701
C         2.59229127662196    4.76372689401445   -1.87526095914311
H         2.40969876767639    4.50580388315650   -2.90765536760192
C         1.87853299690759    4.13097685539673   -0.86890529072076
H         1.14280180380334    3.38084744361959   -1.11561792887657
C         2.11446356428774    4.45509596370133    0.45230161092234
H         1.57241603432784    3.96017473866537    1.24561595722216
C         4.99723695260364    6.53403445384954    2.55166283087003
C         6.03621193640787    5.64800305743501    2.26316645270585
H         5.80142765069651    4.62439124550801    2.00008071553421
C         7.34598559392577    6.08154957685460    2.31725946045839
H         8.14782617645061    5.39397017061904    2.09498170511635
C         7.62775928568672    7.39615356455550    2.65831429286877
H         8.65210898770063    7.73433521846195    2.70224267190785
C         6.59742080782115    8.27672177221357    2.93877957308097
H         6.81561296676020    9.30197313960195    3.19770284088849
C         5.28109283533030    7.85111966372824    2.89016539802151
H         4.48310726653122    8.54523190884513    3.10525149913592
B        -0.66621539501322    7.35130547077782    3.29973206823160
H        -1.77203670954391    7.04319249457610    3.05357363367003
B         0.59757336889022    6.16784785375965    3.51550572894293
H         0.62976358515963    4.98539547565946    3.45773714155361
B         0.04931824651485    7.08866497394406    4.91148854436303
H        -0.40107316873135    6.49715023804650    5.82228983745351
B        -0.27700306426133    8.72257099579153    4.37980772787613
H        -1.08236733355897    9.40383057654700    4.89774938384434
B         0.13165349831941    8.86730973377361    2.65828946209994
H        -0.44084618518511    9.58662016477074    1.92367620047101
B         0.60573254596112    7.25574654914570    2.12176664301311
H         0.58095873178807    6.81609585478881    1.03104105319745
C         2.07026439321888    6.98374995098665    3.06000948744708
C         1.77587897832711    6.95765066818666    4.55092711011280
B         1.25719037671952    8.36295419624196    5.22034747737463
H         1.50090385273610    8.53644262082966    6.36756472489565
B         1.26015410979178    9.53283851899867    3.94340624901931
H         1.33451723349024   10.70833952029292    4.03710788863106
H         2.38325161441503    9.19686130495622    3.41773223968488
B         1.88889581068143    8.48532652226705    2.41358743895689
H         2.52327849422038    8.77789851888483    1.45904505793607

