61
CSD_code = RASZOC | q = 0 | S = 0 | Stoichiometry = C21H36MoP2Si | MND = 12
C        -0.54962992551885    5.49107799406594    6.03418232036842
C        -1.94266944044645    5.42167986457500    6.39257798065053
H        -2.63467840978354    6.24867990979090    6.31570710121849
C        -2.28843895607048    4.07357805373808    6.59345940432735
H        -3.28306936515339    3.68759357015952    6.75963679761858
C        -1.13257830451913    3.29314220577824    6.35716039995082
H        -1.11746448940503    2.21262350427346    6.31075326085911
C        -0.06511645955146    4.14958476529265    6.01570598948707
H         0.91480504962676    3.83566076277704    5.68803395621368
C         0.54442424953248    2.79539579792131    8.77251885052730
H         0.82594339187376    1.95707851729392    8.15038829584443
C        -0.57798087501247    2.82985502635537    9.63436061089172
H        -1.32543875390691    2.05417837241286    9.72642033535264
C        -0.48674695769526    3.97986483275538   10.42273171412723
H        -1.11452812847242    4.21708679670625   11.26952907149573
C         0.68846637455021    4.69258020761005   10.03135897483056
H         1.13312322586434    5.49620005489379   10.60443035954503
C         1.34860929859096    3.92824574174159    9.02923518895168
H         2.35171331914573    4.08007518285061    8.66070822870461
C        -2.69107430133535    7.92843123356707    8.32816174846075
H        -3.59389416643153    7.70162425017068    7.76918917874692
H        -1.95789259021561    8.32815726883836    7.63276816854343
H        -2.94029860345851    8.72140934756466    9.02579490199149
C        -3.64729588312466    5.53729229504563    9.86802404638987
H        -4.26957047869539    6.24330234593024   10.40820204115597
H        -3.46007895080409    4.69637997355949   10.52737833119644
H        -4.22966015410288    5.16899218194462    9.02939730163608
C        -1.27902957147406    7.25745864015231   10.81855414350202
H        -2.01578606131732    7.92138014360052   11.25979735587018
H        -0.41990581225600    7.86353063048626   10.54708165351750
H        -0.96440123334267    6.56702683145131   11.59384797188825
C         3.26775973056441    7.52971963293953    7.42625303145343
C         2.78776352814691    7.26474041656129    8.85492924945387
H         3.01850496741552    6.24499413838628    9.15371410155251
H         1.71249270433499    7.42453803209760    8.94007635367190
H         3.28915104234934    7.94130255856059    9.54688809806213
C         2.97505806964276    8.98711030231751    7.08706325415855
H         1.90061811619798    9.16472210348307    7.06045182972496
H         3.41111294317486    9.27702751896321    6.13505838205639
H         3.40606672191909    9.62919396652743    7.85592883771656
C         4.77502970639263    7.26340624135395    7.38931610491285
H         5.27396007446626    7.85280148186736    8.15834465673029
H         5.21261317954050    7.52466203640360    6.43108345913566
H         4.97879669131229    6.21101488570125    7.58224574363413
C         2.45289567304023    6.81657721821091    4.50489627494300
C         1.97754546451393    5.60632471190464    3.69266550612769
H         2.10480231734993    5.79856653363031    2.62757377171712
H         0.92213806038176    5.40789840113122    3.87131158611063
H         2.55604822084239    4.71835313308303    3.94637086596918
C         1.55753065839591    8.00167790861847    4.15483093150394
H         1.60455457415208    8.17965244474311    3.07991994926744
H         1.86280683170172    8.91114778453069    4.66094381178989
H         0.51937006309641    7.79328241980926    4.41605013071525
C         3.89760344128782    7.10873395199082    4.10295188539953
H         4.55464698035238    6.29776867357790    4.41330558188554
H         4.25457307255340    8.03861931147367    4.53663061831335
H         3.96456713081741    7.20283450961542    3.01877615098808
Mo       -0.57259300179022    4.67142676517606    8.12604550804611
P         0.36620002906316    6.79241605901484    6.84312730125785
P         2.39341320989547    6.22047266676033    6.33859744643441
Si       -2.02888723824133    6.38334788826504    9.27225389338744

