77
CSD_code = RASZUI | q = 0 | S = 0 | Stoichiometry = C25H46MoN2P2Si | MND = 12
C        10.88187687302287    9.46114698965154    4.74897810702986
C        10.60867255972254    8.12862835513448    4.32272795024516
H        11.17089417785050    7.57361636565688    3.58677761917151
C         9.56421192218618    7.61540707819875    5.11927258242507
H         9.20988177338345    6.59310919795759    5.11716402749771
C         9.16954109147027    8.60563408781546    6.04781295014376
H         8.47391136816758    8.46206011059189    6.86120234704940
C         9.97459716625318    9.73952136164234    5.83094980477018
H        10.04945614205323   10.59797103736406    6.48447035264681
C         8.20456141419593    7.69571925893046    2.39613607559719
H         8.64284864843911    6.70968096837706    2.32905335079308
C         7.02892974101724    8.01847059823342    3.11114835539043
H         6.44949292010017    7.33034549748986    3.71142495154105
C         6.68780269601440    9.34415936547051    2.82638492851568
H         5.76244057859473    9.83273950860408    3.09564482135614
C         7.68160055088541    9.86911442544123    1.93580959947396
H         7.55020923778964   10.76735341918836    1.34503109617062
C         8.60376934903909    8.82087795907455    1.64962797084100
H         9.36846246121395    8.83211054292843    0.88943227031226
C         8.97295657286004   12.85244697926941    5.58050915411258
H         9.98576424581056   12.87005515192906    5.18719768401650
H         9.03265529561067   12.64661924299794    6.64503975789468
H         8.56596588589162   13.85236283114957    5.47158057050641
C         6.49571339797613   11.17729874192593    5.95604249023777
H         5.98798976636968   12.08843884517155    6.25500507835438
H         6.90920375909963   10.72827407573457    6.85342489127051
H         5.74382258088225   10.49737855087099    5.56903813241548
C         7.02461314989548   12.71152707704890    3.37155978116115
H         6.20371830464231   12.23208060545260    2.84928033525382
H         7.73581697357764   13.05919688778804    2.62885440990190
H         6.61927056328855   13.58785630406453    3.86705573842180
C        11.66326019327015   12.07833109775552    0.78551311229384
H        11.54193788422901   12.37666805548211    1.83413753845999
C        10.26830162746495   12.12391512502795    0.15975037256457
H        10.29068962829602   11.85127255295661   -0.89272510716632
H         9.85962213514212   13.12749805040194    0.24634711269261
H         9.61796766219354   11.43528076844627    0.69224564699060
C        12.59302033902765   13.10064426730356    0.12314572807887
H        13.60198185336453   13.00767530025651    0.51563213499454
H        12.23107381451225   14.10476834844381    0.33102921237537
H        12.62871107279987   12.97210142529885   -0.95601724197475
C        12.51271645180467   10.15616656971399   -0.51734580963621
H        12.25430328763588   10.90711502553984   -1.26895951470851
C        11.67703339921790    8.91049818615304   -0.80689660900766
H        11.84805438665665    8.16073634892706   -0.03752405970024
H        11.95316805114229    8.48949520948758   -1.77105381468381
H        10.61941628843412    9.16133602732362   -0.83227186877697
C        13.99791297354029    9.83645935792996   -0.66784395044493
H        14.59439416181599   10.72511633930398   -0.48062002509413
H        14.20943113925395    9.48068412619658   -1.67402218156777
H        14.27814365279964    9.06988559030059    0.04590718583015
C        14.70920394764831    9.06676064773005    3.43845179972960
H        15.62508723382311    9.55235546122820    3.78845847583807
C        14.05542482351661    8.37682450025201    4.63955767657106
H        13.58916134126169    9.10444367582244    5.29911780903418
H        14.80040971281377    7.81953387277022    5.20420238011520
H        13.29231275014101    7.68258126838665    4.30012062049142
C        15.10662184299452    8.01600568608228    2.40433035937530
H        14.21404721685767    7.57663689451296    1.96367723699220
H        15.68592919455041    7.22691630426950    2.87853748012667
H        15.70858774868307    8.46359051359821    1.61796545948708
C        14.23192847758340   11.48377200592602    3.16341089163730
H        13.45051722879663   12.09860009395347    2.70724905340380
C        15.56734801683733   11.87814300951512    2.52339574067593
H        16.40680614705535   11.40492698283696    3.02741180740267
H        15.70128424246256   12.95573952425115    2.58305950348995
H        15.58252393166385   11.57849511831835    1.47877260406298
C        14.24378992721936   11.79861761187021    4.66140225655131
H        13.27528778200910   11.55884967157032    5.09938339704248
H        14.43382323333641   12.85949252364948    4.80736604987289
H        15.01521504831083   11.23684055725717    5.18248792421850
Mo        8.83440770837957    9.38848942766456    3.82813999411472
N        12.22767229314469   10.73559203259983    0.79591482294653
N        13.87857097208530   10.10818694023055    2.84809701553517
P        11.06969067883456   10.78017647761619    3.56188514423036
P        12.35752446970573    9.70727330134274    2.14944656379320
Si        7.86883286042521   11.56220670337493    4.66729288721770

