29
CSD_code = RATBEU | q = 0 | S = 0 | Stoichiometry = C12H10O4S2Zn | MND = 4
Zn        1.63466669222063   14.64657186644472    5.03042582142715
S         2.67846088117596   12.86237877871464    6.23998221713104
S        -0.06223728114858   16.31276844885260    5.31086316833844
O         1.28739381008980   13.38882210719839    3.58853269840013
O         1.92185711872609    9.95075012244805    2.93686192869442
O         2.83316382803145   16.05413015387169    4.42543928642281
O         2.63223805789860   19.55943476688714    3.84672526208230
C         2.38825902006321   11.77423397055048    4.97774032929683
C         2.79974723063463   10.43151901800473    5.06693944301457
H         3.31268141968279   10.09713510351525    5.95266908443684
C         2.54850265659056    9.57404717779776    4.04109755605240
H         2.83106714770453    8.53275513316021    4.03433068117985
C         1.50904741598311   11.21539231987328    2.79507655229952
C         0.82047349100734   11.52090065374242    1.50890734010070
H         1.49477808594094   12.05230827454835    0.83697996199493
H        -0.02652169587790   12.17447277983349    1.70312382366519
H         0.49289100981875   10.60097669963184    1.03249859462912
C         1.70710853501388   12.19293774495311    3.77350066228323
C         0.97074368645249   17.52804412958023    4.74848845962586
C         0.53063449302245   18.86020838637083    4.64073967794093
H        -0.48161990818523   19.10312955784411    4.91562521598481
C         1.38178232342581   19.82234782931232    4.19324259981829
H         1.12110750796644   20.86371784191511    4.08366373228794
C         3.10605321672863   18.30995555887808    3.92548163870062
C         4.52614545839515   18.14371462378148    3.50276805385062
H         4.58690380340564   17.98162321492975    2.42605984750773
H         4.93913428794778   17.27054857304332    4.00006225750614
H         5.09926153181732   19.03381337586145    3.75098201829106
C         2.33347617547313   17.23216178845455    4.36539208703493

