37
CSD_code = RATCEV | q = 0 | S = 0 | Stoichiometry = C14H16N2NiO2S2 | MND = 4
Ni        0.62604621832149    6.78737049684880    9.05545095681879
S         0.55249591507691    6.86135983635713   11.22829172842356
S        -0.25339155758382    4.79983985343611    8.96477466654397
O         1.41018033691519    8.52810386629761    9.08756938581128
O         0.69495594173783    6.77313330512790    7.14751973422279
N        -0.21293976201206    4.54627954181827    4.50020909078516
N         2.35275427701279   10.94217822329571   11.55236185929376
C         1.23497448191813    8.41779163930443   11.42952825286681
C         1.44727289427193    9.04464706121965   12.65619196219309
H         1.17547928045854    8.54733784399724   13.57230460046760
C         2.00241286676343   10.29706154502055   12.68379243057922
H         2.18109433740962   10.81567261634461   13.61192403764494
C         2.93314087325549   12.26215756054349   11.63538387350567
H         2.99994499003755   12.56929926129267   12.67669288297295
H         2.31917539909128   12.98408375996154   11.09448352446504
H         3.93481273763547   12.26768781239360   11.20245067268888
C         2.16917067497125   10.37427144724597   10.32864034637722
C         2.56621412558026   11.10255855669205    9.08784847903111
H         2.01118650283600   12.03346671711746    8.96986707041703
H         2.33846697044308   10.45067905689698    8.24782805643424
H         3.63167280365328   11.33269899944719    9.07688795581261
C         1.60306223946145    9.09613380194144   10.22414898372152
C        -0.26689993696337    4.63085171161088    7.26181572885087
C        -0.74021154981275    3.51526029733332    6.57329633070703
H        -1.13390628841015    2.67173187592326    7.11541549799168
C        -0.70008380150953    3.50375818415867    5.20372652939302
H        -1.05757728180297    2.66076121818004    4.63470855047085
C        -0.19614137868182    4.48631012827248    3.05713944572839
H        -0.61562658637536    3.53969449815387    2.72378507421257
H         0.82547043002032    4.56959055066451    2.68266204165826
H        -0.78662330125625    5.30060936203881    2.63406491730983
C         0.26467659997014    5.65863905207799    5.12325567034035
C         0.80278635788522    6.80095545998149    4.32754961950525
H         1.66262307502741    6.50506227603347    3.72608335358971
H         1.11605910713928    7.56442558319404    5.03579447077282
H         0.04775060216264    7.22418893440630    3.66479202504613
C         0.25432140535020    5.74014806537023    6.52266019334562

