103
CSD_code = RATGIC | q = 0 | S = 0 | Stoichiometry = C52H44MoP4S2 | MND = 6
Mo       -0.00125069585833   -0.00100015937768   -0.00037064085197
S         0.87188390776776    1.84267619167993    0.88466749001409
P         1.66628270539569    0.24891196758428   -1.69510820586701
P         1.76379741483349   -1.15241203716383    1.12847291048036
C         3.26759728197365   -1.03898355955214    0.11373884917752
H         4.17575028761672   -1.48202871665731    0.51580010521768
C         1.86307194015960   -2.91838015020259    1.56897096895422
C         0.84962861563630   -3.80045714119334    1.22282209517098
H        -0.00542458031052   -3.44451200849715    0.66359728055976
C         0.93597328132782   -5.13420968220927    1.58409840569492
H         0.13938414148505   -5.81162398689761    1.31395334387915
C         2.03550002954871   -5.59394882884916    2.28669013803146
H         2.10383409197879   -6.63487840155523    2.56805952866114
C         3.05327491850454   -4.71693187312133    2.63191113716385
H         3.91219190321814   -5.07434416195991    3.18206445542092
C         2.96979371578167   -3.38499105946376    2.27828103267585
H         3.75551045328447   -2.69830520553750    2.56676201815220
C         2.34522162039356   -0.41518540374508    2.68093179253876
C         1.82727948433237   -0.87266499411553    3.88809480462092
H         1.17564293862575   -1.73650879241982    3.88923279523458
C         2.15397871811257   -0.23819254670195    5.07124822815728
H         1.74526135125252   -0.59674235620597    6.00522209813745
C         2.99708419919626    0.86124957185556    5.05656664779196
H         3.24778885323608    1.36131466563728    5.98085181858177
C         3.51831831334213    1.31951388324918    3.85791653496908
H         4.17445446371608    2.17775540351337    3.84578271466968
C         3.19328973937239    0.68696164035814    2.67195640604579
H         3.58764391517880    1.05126535056968    1.73262136514008
C         3.22653159803555   -0.44846213281946   -1.07602356366781
H         4.09858404477745   -0.37161066764375   -1.72123645829042
C         2.18134808878381    1.94599059626934   -2.07764291911712
C         1.58594096812317    2.61540159307295   -3.14166235855942
H         0.91123725038414    2.07608752988812   -3.79339674440629
C         1.86572892089470    3.94918183897378   -3.36952254127867
H         1.39717752790564    4.46408587921852   -4.19611171935331
C         2.73901203887162    4.62544657190052   -2.53295899252155
H         2.95346985854855    5.66984639654495   -2.70747079973977
C         3.33687198245546    3.96348900430632   -1.47331888532068
H         4.01642876202491    4.49085808153855   -0.81961962449578
C         3.05899193970099    2.62869986493391   -1.24235131331534
H         3.51351854449951    2.11260966159076   -0.40710307370951
C         1.69192546619332   -0.46663079251318   -3.37132988506570
C         0.67460626170842   -1.30283013221175   -3.80808006489850
H        -0.13780140214038   -1.55578064390336   -3.13982412496565
C         0.70301608431866   -1.81932098539334   -5.09233122777120
H        -0.09637591216397   -2.46527810431479   -5.42418682528552
C         1.74854776385043   -1.50835315109744   -5.94327346543250
H         1.77158039506646   -1.91169899563944   -6.94534709367710
C         2.77027250738331   -0.67608515909275   -5.51011536308788
H         3.58704204246401   -0.43121495489373   -6.17424735782297
C         2.74423655700619   -0.15451743487437   -4.23209040964716
H         3.53200444661251    0.51134775441543   -3.90323159383859
S        -0.87152084092470   -1.84529837084365   -0.88629103706603
P        -1.66614640299014   -0.24878913817941    1.69540874752991
C        -3.22635029704440    0.44835026354054    1.07595928118262
C        -3.26741408851258    1.03885736912201   -0.11382810146905
P        -1.76365847345057    1.15270489328708   -1.12857854221719
C        -1.86317433300191    2.91861642855578   -1.56898795782789
C        -0.84973047731406    3.80064442722694   -1.22281422920446
H         0.00535557253793    3.44464972449376   -0.66367323489152
C        -0.93608173217011    5.13439049176237   -1.58403413600385
H        -0.13949048585716    5.81178494832375   -1.31385543655595
C        -2.03562335552527    5.59412958233365   -2.28660495235395
H        -2.10397156423954    6.63506546200935   -2.56792078646604
C        -3.05339365598022    4.71711991071506   -2.63187188942603
H        -3.91232287225773    5.07453037543161   -3.18199876607499
C        -2.96989819565994    3.38517987619046   -2.27828778134841
H        -3.75558432734911    2.69845991149480   -2.56678171226160
C        -2.34505336479619    0.41522421532157   -2.68095802799231
C        -1.82723855805734    0.87274662027112   -3.88815921530163
H        -1.17564480917024    1.73661582362971   -3.88932795591175
C        -2.15401455263771    0.23830225138958   -5.07130781752760
H        -1.74533059590062    0.59685555020400   -6.00529387385587
C        -2.99710411436494   -0.86115114833553   -5.05660925073847
H        -3.24781611495469   -1.36122363037738   -5.98089068006322
C        -3.51828469446368   -1.31942905019920   -3.85794336433008
H        -4.17440640019936   -2.17768469767651   -3.84580626024254
C        -3.19315620622740   -0.68691993787637   -2.67197431326296
H        -3.58749460547951   -1.05123571885045   -1.73264185508919
H        -4.17560750690530    1.48180938460448   -0.51591390942901
H        -4.09844350792793    0.37144271639721    1.72111452688263
C        -2.18118431037672   -1.94596003353071    2.07767587561221
C        -1.58592282807861   -2.61536624805588    3.14177754046332
H        -0.91129222230805   -2.07604734243638    3.79357516325600
C        -1.86575673756918   -3.94913697688758    3.36964002393862
H        -1.39728183480114   -4.46402985306038    4.19627793727235
C        -2.73894999393903   -4.62542146799732    2.53299895179071
H        -2.95340701747603   -5.66982529598031    2.70749839587803
C        -3.33671867405528   -3.96347477896611    1.47330330445980
H        -4.01620433389089   -4.49086879210274    0.81954609588764
C        -3.05878959999288   -2.62868603884443    1.24232599153649
H        -3.51326468571444   -2.11262048789718    0.40703961925717
C        -1.69198467054825    0.46676340279370    3.37154495114899
C        -0.67464079038419    1.30291003984234    3.80825495340627
H         0.13779363613328    1.55578204508065    3.14000829172298
C        -0.70302375974555    1.81938493884461    5.09248827370681
H         0.09638765953470    2.46532832414816    5.42431542602618
C        -1.74855621597350    1.50840836692795    5.94342605474747
H        -1.77157120496158    1.91174584735072    6.94549481848782
C        -2.77029887983121    0.67614526441415    5.51028588930678
H        -3.58706844197075    0.43126950687126    6.17440713908425
C        -2.74428644143546    0.15460605633335    4.23226442291820
H        -3.53203683622320   -0.51126423806779    3.90336369824773

