55
CSD_code = RATHUR | q = 0 | S = 0 | Stoichiometry = C20H24N6NiO2S2 | MND = 4
Ni        7.33503367966032    6.94928139281998    3.02823678564696
S         7.41703958165205    6.62440307920804    0.85890245818289
S         7.32351096633534    4.78003227683931    3.39808210085857
O         2.93451500323485    6.73160203489022    2.41056621051036
O        11.23946303910706    2.00497800410394    4.53806634394776
N         6.31296231146375    9.07074282688857    1.13053988412791
N         7.95782346479873    8.80967467754927    2.74909642736956
N         4.88881529568403    7.39828372759145    0.50351390844058
N         7.03643687663915    7.29748233033132    4.91688959493648
N         8.70092900049769    5.75241957091907    5.51199919242535
N         9.85925239187379    4.41030632072034    4.09035992748391
C         6.11532836614602    7.80173948804482    0.91079886202212
C         7.40259015017474    9.54056871716195    1.75065084689308
C         9.00404854820706    9.30431019810895    3.41251840668072
H         9.41919784450756    8.67806729565537    4.19558862159757
C         9.54060716876678   10.54443927861437    3.14892515374614
H        10.38091719228041   10.90386307399422    3.71980543181594
C         8.96347000564799   11.32048311497829    2.14272054536227
H         9.35801137972389   12.30002524578366    1.91674927677899
C         7.89555147422113   10.82214622810703    1.44292060307954
H         7.42168745577336   11.36885768817493    0.64450683147948
C         4.49372466508685    6.01627415602762    0.69517988103530
H         5.33720595395330    5.35415952611842    0.50368355919883
H         3.67832602744635    5.78951953412032    0.00473956943761
C         4.02188630295440    5.87652619488171    2.14772980904189
H         3.68557120704082    4.86371908239492    2.36783301052037
H         4.88192890085987    6.12884828443711    2.81468485133795
C         3.26654838119831    8.07899201120492    2.17460258909748
H         4.06168809922024    8.39362014884683    2.87038341504647
H         2.36268523402624    8.65822201060966    2.36864221631331
C         3.77022704613633    8.29235592809307    0.74110293616590
H         2.98285734963957    8.04772785840868    0.02387222891578
H         4.10319091229572    9.31983056482022    0.60050587950698
C         8.72642298274539    5.05852551973269    4.40546015485796
C         7.72903647540664    6.60472974995061    5.85416992861144
C         6.13109324956713    8.19659394272469    5.31232711858004
H         5.61749547945292    8.74087602280512    4.52653239727662
C         5.85230894598871    8.45816982640922    6.63287666936514
H         5.11380311836478    9.19747937217172    6.89515448673073
C         6.55669087093915    7.75502340750718    7.61239553261406
H         6.36445439558974    7.93785516832101    8.65907373820040
C         7.49439720147078    6.83590665977426    7.22589030440899
H         8.06570256642304    6.26064422532772    7.93571748562966
C        10.98820177515403    4.38050721849710    4.99464318722945
H        10.82216114389560    5.10362292963395    5.79166786277572
H        11.89271870566213    4.63701374522956    4.43340975732704
C        11.12020431431753    2.96173339277185    5.56494015550580
H        12.02166585818407    2.87116105752495    6.17282167546370
H        10.23673201004653    2.74293443503556    6.18422950415141
C        10.12834174141193    2.04180294946688    3.66893613847760
H         9.20871099408576    1.79091716563472    4.21890894334600
H        10.31310542220152    1.28602268012226    2.90478279324705
C         9.97554581020734    3.42944549060595    3.03745878300592
H        10.87078365529984    3.66214075876983    2.45035635410773
H         9.09619200733678    3.46889241154352    2.39454967007792

