76
CSD_code = RATJII | q = 0 | S = 0 | Stoichiometry = C27H45N3Ti | MND = 8
Ti        4.53646690585138    9.67176499210847    8.89866000474043
N         5.70007515185538   11.01595382023384    9.08016840294044
N         7.38316734432313   12.62407344773173    9.15909764312719
N         1.77219573517083   15.79903714886117   10.25915919247500
C         3.71496960971217   10.64892028849795    6.89484261708935
C         2.64381549764830   10.56141095349805    7.82119440238281
C         2.40014734104054    9.18545611833128    8.07875348859121
C         3.32176752327845    8.42487850943899    7.31379454088050
C         4.13944896512577    9.32994702288039    6.58963532727223
C         4.20489501525742   11.88715419117911    6.19567544878862
C         1.79328539461440   11.70195096473981    8.30706629780656
C         1.21821748287360    8.62561350777007    8.81958141144621
C         3.26654370532341    6.93680597232560    7.11033225174793
C         5.14714323713655    8.96416801259163    5.53479382784866
C         6.07675586960410   12.20781914148585    9.25822647085825
C         5.03009657052848   13.23576302569478    9.55574837308597
C         4.72779495891315   14.27245390970297    8.67738515311918
C         3.66709586908491   15.12371732962995    8.91325207306848
C         2.85566900255677   14.97780743410047   10.04777352904391
C         3.17807928932150   13.94050871466309   10.93585758799261
C         4.23009645470295   13.08475108354531   10.68409382316617
C         1.62342850289098   17.00074067702934    9.47486897979046
C         1.01529308354525   15.69125798875451   11.48133476803495
C         7.79439658897573   13.95427096132197    9.57378440273199
C         8.46098192282562   14.72096512760559    8.42689182913541
C         8.69650395537326   13.92298981703514   10.81183018275239
C         8.42343787749402   11.65774459977980    8.81928706376831
C         8.16469314938613   11.03158542156376    7.44722928741295
C         8.56435262705873   10.57589357172104    9.89249100936613
C         3.80776091833551    9.51699686028656   10.84258713244479
C         5.83369694882816    8.04477962788034    9.11748261638466
H         5.27582500534264   12.03777101891352    6.34933131537391
H         3.67996611714054   12.76748386536910    6.56017542637853
H         4.02562319091016   11.80463028239474    5.12026265229312
H         1.40212188719010   11.50511034824002    9.30561570427755
H         2.36008649760353   12.63080354784734    8.34731782678553
H         0.93977144617620   11.85079186558828    7.63816323636166
H         1.44678787208249    7.65315846866556    9.25616777907134
H         0.89500322278121    9.29201791759825    9.61873900755202
H         0.37456196408703    8.49260571475881    8.13516163282384
H         4.22737056107166    6.54643155950650    6.77694160793862
H         2.98140658895237    6.41634770036834    8.02527418823369
H         2.52346359681897    6.69200621421758    6.34512732479377
H         5.69981704796211    8.06371024014265    5.80536980014975
H         5.86124279047183    9.77295719774778    5.38145020904877
H         4.64508293097562    8.77197575496812    4.58144945718439
H         5.32721569080725   14.41596365930805    7.78935787087270
H         3.46987447395132   15.90405096361613    8.19635930139034
H         2.60408001234130   13.79373551428814   11.83583887347166
H         4.45889629103088   12.29016312888570   11.38167924934397
H         0.76986740661311   17.56780012075830    9.83854302057366
H         2.51111200830584   17.64150435634710    9.53337868055693
H         1.43964301793442   16.75512496874976    8.42550949254923
H         0.16113768306485   16.36348732414387   11.43655529020908
H         1.61123573654106   15.94770276235217   12.36642102245554
H         0.63323577529549   14.67544354487385   11.59972054993796
H         6.88199838983810   14.48978107609244    9.85140125734335
H         8.61518983157676   15.75675515535794    8.71835594887773
H         9.42639398553310   14.29349819055644    8.16764695732211
H         7.82772867752695   14.70061136386573    7.54353977093208
H         8.87620818539036   14.93867372423479   11.15587877456602
H         8.21013472793461   13.36868130771339   11.61079208411884
H         9.65708616147521   13.46142128883803   10.59804781964075
H         9.36302860579353   12.21630031911014    8.76196750965129
H         9.00753009443095   10.40563026405635    7.16400593057855
H         8.04092913749932   11.80937022369464    6.69589020792594
H         7.26020074390836   10.42132866067212    7.49065685440444
H         9.33427570442773    9.86554841677420    9.60178622797335
H         8.83870606091685   11.01572867814448   10.84807322086982
H         7.61356235898548   10.05337481296534   10.00104957383588
H         5.23962015490088    7.12221855728826    9.15305428164402
H         6.43579178812958    8.06423403135284   10.03597627392728
H         2.99298714565988   10.23074224988274   11.02375858745321
H         3.40191877167051    8.50679375067326   10.99746566878825
H         4.56694232455362    9.67890421239088   11.62208869683241
H         6.53216583575844    7.95684543470126    8.27427469437148

