80
CSD_code = RATJEE | q = 0 | S = 0 | Stoichiometry = C29H48N2Ti | MND = 8
Ti        3.08425584115429    8.09784325235815    9.27654546375512
N         4.36807075480169    6.86970630239682    9.05223983946589
N         6.18853983593016    5.44743978895965    8.73704833679068
C         1.62204711753421    9.55935704338429    8.16143577188656
C         0.85334217746774    8.49896390709497    8.70693934257151
C         1.23524090664872    7.29501709457485    8.05603591429960
C         2.24275160016253    7.61227841049286    7.10956603797685
C         2.48859804514612    9.00875562495370    7.18277844235795
C         1.37341890684988   11.02150110466806    8.40418113297868
C        -0.33430871821287    8.66060315599201    9.61346013218273
C         0.54564377933884    5.97155775225549    8.23699529374335
C         2.83972329182445    6.70271032056751    6.07074817119864
C         3.38214847142286    9.77387276070541    6.24592633766687
C         4.85733648453061    5.71237410149844    8.94053775269973
C         3.90709151114988    4.55346287613786    8.98782197626266
C         3.17794140603929    4.31927782003542   10.14925898823887
C         2.20298996018601    3.34224639262629   10.17983745125834
C         1.90240569316431    2.57368493054277    9.05622225209072
C         2.63483038682314    2.81591444235507    7.90033330294064
C         3.62216815077188    3.78620280756300    7.86418658027144
C         0.80092743177641    1.52858949522696    9.13618693528516
C        -0.51895252002780    2.22492654819771    9.49725745302775
C         1.16075923112812    0.50068116432116   10.21819733467616
C         0.59854735152094    0.78007103753052    7.81591561088288
C         6.71310057475098    4.09322038752080    8.78599829541427
C         7.64907769301700    3.87769357459329    9.97932907445822
C         7.39799235745391    3.70843444701742    7.47082354968211
C         7.13769586570098    6.55320672003544    8.64758444763966
C         7.21206578771327    7.33692905324850    9.95963475336837
C         6.79609114440949    7.47905534863864    7.47821608079270
C         2.48722264813737    7.68415521964201   11.22664945952094
C         4.25371721714552    9.73788243537095    9.83776416550127
H         0.52938485132164   11.36182513649661    7.79669049959122
H         1.12849469739895   11.21845055011375    9.44871646598439
H         2.24056164613908   11.62290336217669    8.13426826536613
H        -1.22897465946795    8.88279838276560    9.02350280964585
H        -0.19051990693453    9.48047205562295   10.31747448289494
H        -0.52795259847599    7.75033666073488   10.17994806862971
H        -0.44456176121684    5.99555234326131    7.77176250584707
H         0.41236339896273    5.73311844323434    9.29365885049526
H         1.11588245492299    5.16265925961504    7.78467091383200
H         2.65875738568356    7.10851844658363    5.07228806111867
H         2.39075831771040    5.71282963012622    6.11981328182439
H         3.91947309850697    6.59713916183710    6.20197991657679
H         2.83261053239660   10.05467369867281    5.34198131141300
H         3.75116843943345   10.68981896605618    6.70742741301788
H         4.23912157894826    9.17064101269933    5.94394508546066
H         3.39483618862408    4.90709509059323   11.03121674595461
H         1.66396994695394    3.18187202217337   11.10184006050395
H         2.44578566207689    2.25069286296547    7.00165759313176
H         4.17380811119775    3.94885814783800    6.94885345132517
H        -0.45374895557266    2.72185175816561   10.46109343519699
H        -1.32651395063103    1.49721813079009    9.54351366130163
H        -0.76780990155316    2.97103564497305    8.74555685147164
H         2.10565982064218    0.01715855145308    9.97839120105912
H         0.38847532551848   -0.26311167552410   10.28118084601807
H         1.25608315502612    0.96877400782159   11.19385933962537
H         1.50103497302651    0.24746210843162    7.52460743320533
H        -0.19912407655316    0.04912674478004    7.93256651948075
H         0.31304134224019    1.46259526383605    7.01875444068059
H         5.85397368809021    3.43025640772362    8.92418703715215
H         7.14715961571648    4.16209865638158   10.90093762999963
H         8.56294220292925    4.45823542488317    9.88358190130216
H         7.91901701816988    2.82648133301821   10.04358952770205
H         6.73477171300864    3.90216343868113    6.63154222142857
H         8.31715112784791    4.26886853596589    7.31962710321873
H         7.64304269241164    2.64954054160107    7.48066643652935
H         8.11829192094704    6.10921244414773    8.44997130913923
H         6.22520169665091    7.73627020343291   10.19542436657331
H         7.91791642634723    8.15764586801068    9.86035878420798
H         7.53786583279868    6.69335296630167   10.77306513276207
H         5.84568242593609    7.97912433764297    7.67512470108791
H         7.57735522945253    8.22613891026349    7.36113110542166
H         6.71970424869345    6.90769476756117    6.55498098177177
H         1.74843558606453    6.87228310907039   11.26134452230194
H         3.31227552889700    7.40739047564197   11.89974593296675
H         2.01275148181954    8.57899731032798   11.65498990546263
H         4.89063537365805   10.08795327530985    9.01429801259084
H         3.59003593110456   10.56595246720981   10.11842852540457
H         4.90904475774297    9.55675843803048   10.70022967143562

