36
CSD_code = RATKOO | q = 0 | S = 0 | Stoichiometry = C17H13ClN2OPdS | MND = 4
Pd        6.72016548618178   10.06131268198710    2.81331772801288
S         7.73101488404124    8.77452788042488    4.38427286065065
Cl        6.88252521265394   11.87414951854650    4.14571936732974
N         6.51736754580481    8.43479447770495    1.70082727878964
O         5.78328175745680   11.17670490002914    1.41065561537666
N         6.04067555249790    8.37214995201300    0.51264057981776
C         6.87681880226656    7.21709822932268    2.27213142955869
C         5.59617311936839    9.39699500897137   -0.19851223914318
C         5.47695224269493   10.76837959205628    0.25543875507624
C         4.93699765576899   11.73181987631004   -0.68869716681986
C         7.44551123815345    7.20892837204696    3.55251680724023
C         4.68494581526794    9.97604513978158   -2.38153477870501
H         4.38179646564700    9.69709900788546   -3.37950089228096
C         4.55188896115601   11.34196958822757   -1.98788950823583
C         6.68058451170476    5.99188002909338    1.62230415064564
H         6.24194236532073    5.99869112477035    0.63718492515151
C         4.04659843436963   12.31599740870200   -2.85897409922956
H         3.75122336489984   12.01986681879752   -3.85535926675088
C         4.80938823047357   13.07250211733540   -0.29965745328530
H         5.11404006159152   13.34657711312620    0.69924247707109
C         6.27050209675316    8.79517603662085    5.48803566706192
H         5.35616302621212    8.64562155209173    4.90690275451573
H         6.26731910141593    9.78246953403051    5.94890031359103
H         6.38253847476247    8.01842235350300    6.23965495490240
C         7.82078890452255    6.02298495629071    4.15778869427433
H         8.27350299959147    6.05023837191195    5.13706371640568
C         7.04513986682386    4.81330121430529    2.23784120849805
H         6.88895960315816    3.87610710482958    1.72568143906769
C         7.61307324188885    4.82013255863114    3.50513616429076
H         7.89770094171119    3.89408779982560    3.97917433990950
C         5.17861301694123    9.05849681364528   -1.52504825895772
H         5.28620307215278    8.02294393448251   -1.80941507281783
C         3.92775962757777   13.62668611890352   -2.45943880239322
H         3.53712244172785   14.36609804040580   -3.14322587578505
C         4.31086968942241   14.00857772226715   -1.17382992130788
H         4.21575218801876   15.03946705112257   -0.86824789152600

