125
CSD_code = RATLOQ | q = 0 | S = 0 | Stoichiometry = C45H45F18N4O12Y | MND = 8
Y        -4.21553723344127   -0.22150566456673   13.25087358488280
O        -6.17188353276167    0.73698591480851   12.95661251522882
O        -2.20622963263691   -1.00883936378540   12.34396625183095
O        -2.69088555962911    1.47396312540060   13.16838000754995
O        -4.73749344062443   -1.90808184086737   11.80352477581862
O        -4.64637516765909    1.02223474296927   15.10414637682761
O        -5.73731581606075   -1.48270785290887   14.37009013699581
O        -4.17647300459497    0.57816043354250   11.04838205368830
O        -3.16347030220466   -1.18646028009149   14.92692796444316
F        -4.41916392697919   -4.12996524945307    9.12367483009322
N        -1.94706197594706   -1.55858129295199   15.15584262343321
N        -6.86066370190680    1.11325083946485   11.92972291870391
O        -3.73635236033599   -6.24668924532850   11.13801724376131
O        -7.75402357519160    3.18730536068695    9.38236497590952
O        -2.48446079014791    5.82073169455395   12.03809410792518
F        -6.06634611656895   -3.84214665974123   10.47546559835253
F        -7.40042454029378   -2.69180575239334   17.11330010209956
O         0.75112198380796   -3.62670418497489   14.97738628402218
F        -8.63513734051258   -1.96460437592269   15.50704705763697
F        -2.95346056361186    2.17453221509356    8.20908127981071
N        -7.59812867574466    2.27561167706633   10.22384871639460
F        -7.19089476793323   -3.51854722350402   15.13756803667838
N        -0.08633054970135   -2.71723510778589   15.16588753373154
F        -4.76764388040514    1.06296584012154    8.51666309954594
F        -0.36043790744187    3.71019787463002   11.83554555707012
C        -8.45179710000606    1.06744682143058   10.21374496889105
C        -6.66896243053399    2.20911281296414   11.19105544073264
C        -1.33898296395026   -2.65099044702538   14.68686306675834
C        -3.32303732289015    1.21339202716993   10.39673279220909
F         0.35450578387629   -1.45863794011025   11.89496508565922
C        -5.60626490975668    3.17703573452052   11.39466130479203
C        -4.16112111147917   -2.43949764477797   10.84018783029076
C        -5.37936476895673    0.82461593865339   16.08748675132561
F        -6.48437510741388    2.16134108628977   17.77560223634021
C        -2.02900215500020    2.00677418013136   12.26247079945174
C        -5.06690443684209   -3.21668718794671    9.85278363565718
F        -0.26373361614756   -0.47137030782548   10.08644540149803
C        -1.93905270469108   -1.64430656135761   11.30402021484304
C        -3.47749080587250    1.13336193642057    8.86266737222123
F        -0.95034425704352    3.40286406028564   13.88031136395024
C        -3.50643577041583    4.99310574932779   11.75711071219355
C        -1.13985984221261   -4.33455791377838   12.88802720231289
H        -0.07010273425059   -4.19837553301452   12.89508323518404
C        -5.09618551965451    3.90361978563924   10.31642610320057
H        -5.51769602946945    3.76997015052215    9.33283128719780
F        -4.48858129163305    1.47641053273752   18.20067998211267
C        -1.13376444737780   -0.85588892926562   16.16031815843231
C        -8.10516521135583    0.41394172943275   11.57436767130085
C        -2.80591736989596   -2.37821255185524   10.50121344440315
H        -2.43773849322796   -2.87324463119638    9.62013091368910
C        -5.30001418489161    1.89333029636124   17.21012948295822
C        -6.34452202955855   -1.30230628623464   15.43866300758136
F        -0.06150732254397   -2.61537268696047   10.13096077506427
C        -1.19538339096607    0.64499086012674   15.90683736975307
H        -0.77852119187458    0.89894491122671   14.94009919939964
H        -0.65583149526934    1.18017011043153   16.68266573681390
H        -2.23460081830374    0.96857201477121   15.91303350494785
C        -0.76872182918709    2.78749497194060   12.71165444311625
C         0.25354791780103   -1.51346251712404   15.95552395617925
F        -2.88676899128608    0.02807265936085    8.37941656474776
C        -1.70113702390278   -5.22166753702700   11.99259901806388
H        -1.05497526194690   -5.74936498405332   11.31029007698917
C        -7.85659432764080   -1.08851596652041   11.54145998491287
H        -7.13199490716473   -1.35296296571495   10.78124414485458
H        -8.78516227670625   -1.61928857491558   11.35291381840452
H        -7.45688694585792   -1.40783848015753   12.50215270777365
C        -8.00702144958645    0.25458612186485    8.99380299948037
H        -6.95732078840902   -0.01556249735723    9.05493178559979
H        -8.14157368451172    0.86647630577107    8.10451584905388
H        -8.60518598462254   -0.64529640188257    8.89273963957852
C        -1.93714118635956   -3.61562351278111   13.78151089034976
C        -7.39234857637671   -2.38560634302635   15.80907278905421
C        -0.46750553466165   -1.56102750470566   10.84487111946158
C        -4.05737384618720    4.79490134794520   10.49023891665858
H        -3.68236515376253    5.32879952398203    9.63241191600889
F         0.26583861653686    1.94108066396239   12.88238471524314
C        -4.03839565841609    4.28791907113792   12.84494807834615
H        -3.62189676404110    4.46098576614970   13.82454219364804
C        -5.06279541642912    3.38858607468261   12.66927358595590
H        -5.45635449438319    2.86714312974265   13.52855121467901
C        -3.08199166585789   -5.42310834156527   11.97570281772412
C        -9.10111566618336    0.73281443246606   12.69801198333574
H        -9.24940831678857    1.80505069133848   12.80502643520858
H        -8.69949587067787    0.35049890302984   13.63408067476549
H       -10.05671304453189    0.25286831132528   12.51203062762987
C        -2.24504401721888    1.94623643584108   10.88232966276832
H        -1.57720828779611    2.44180894764395   10.20014877841743
C        -3.87961826943413   -4.72559364715630   12.89275146923686
H        -4.94361196203498   -4.90155152153503   12.88834583926498
F        -4.80576083800471    3.04633103840134   16.76112284430117
C        -6.24157391806305   -0.24350936965508   16.34311959102286
H        -6.83099804290769   -0.25153058361798   17.24489657969885
C        -1.78369093320713   -1.16174318898822   17.51660926678509
H        -1.82997956336686   -2.23226859881200   17.70315901712000
H        -2.80042046633636   -0.77486024868756   17.50703398018110
H        -1.23925507000822   -0.67784459443841   18.32124677915544
C        -3.32215948920883   -3.83058882039334   13.77437716880639
H        -3.96236021696269   -3.31503849685232   14.47398336199741
C        -9.90528465335558    1.49038180025973   10.02882523795427
H       -10.24157652731755    2.15057450124966   10.82209579646032
H       -10.54687141112464    0.61526470275370    9.99361229154656
H        -9.99197102024548    2.02867508629936    9.08800459554510
C        -1.85279771832180    6.53853800210793   10.99049852050138
H        -2.56957325684343    7.23047510139080   10.52829164329618
H        -1.48626073879654    5.84019615558759   10.22761105416456
C         0.97961962971245   -1.94512193315028   17.22549195803261
H         0.37109434500889   -2.60087676318743   17.84017413408009
H         1.26697313137426   -1.07362803500856   17.80564210846568
H         1.87641696310765   -2.49103021222345   16.94230699606346
C        -3.01603752714021   -6.95803276588325   10.14466135095931
H        -2.30924491828636   -7.65057455210397   10.62110511814619
H        -2.45800775416779   -6.25552399361625    9.51287242376953
C         1.21444556897792   -0.70090429840153   15.08169274076715
H         0.76088199173385   -0.43032408061827   14.13312853249669
H         2.08794424130723   -1.31365076250114   14.86981268464658
H         1.53521974171489    0.19867216204370   15.59703877459455
C        -0.69063176498595    7.30420400610709   11.60090948713935
H        -0.18552920147596    7.88240248926311   10.83297416474224
H         0.01315026279864    6.60659132200072   12.04499069656845
H        -1.05284896297701    7.97476608146186   12.37504077373665
C        -4.03015067543287   -7.72196004687042    9.30944483246367
H        -3.51974897004905   -8.29401904474439    8.54042912040013
H        -4.71648989273377   -7.02345941237453    8.84014742502341
H        -4.59863199748488   -8.39800157403848    9.94186891722276
F        -5.63632225130501   -2.36485137654785    8.97761165209009

