73
CSD_code = RATNUX | q = 0 | S = 0 | Stoichiometry = C36H24Br6Cl2O2P2Pd | MND = 4
Pd        5.57667288509600    4.56070146344409    0.00023546760842
Cl        4.58677803635092    5.97285003106840    1.57064992813103
Br       10.10654822589475    1.47253630802146    0.58371770212169
Br       10.55103764099761    3.95141367775808   -4.47989550146773
Br        7.87604974599890    6.60105410493112   -0.26431204022916
P         6.99258412340736    3.77504232063405    1.58269754700718
O         8.58156106881057    4.02670514154577    1.21759040196831
C         9.04609663106907    4.02384868335710   -0.05853696891470
C         9.76487955174350    2.93706355450153   -0.55615519193766
C        10.22571406213345    2.90917060683058   -1.85986153415125
H        10.75673316080443    2.04475187673615   -2.22648314732215
C         9.97030393062636    3.99171193366411   -2.68338850636247
C         9.29994788655203    5.10864516529239   -2.21640633824188
H         9.11089602535573    5.95519571005849   -2.85729187173995
C         8.84618973137857    5.10849510834435   -0.91136914083586
C         7.01288879286078    2.01203923957064    2.04367619364747
C         6.44311283832994    1.05340393603821    1.21695730686789
H         5.95230748827115    1.34916713348980    0.29980840617713
C         6.52687903809025   -0.28581420483639    1.55727540720711
H         6.08244496280716   -1.02860591716927    0.91259777250665
C         7.18335589589328   -0.66707579099642    2.71450329642346
H         7.25142497377744   -1.71213230517215    2.97697734980683
C         7.76204633680743    0.28929352245073    3.53513502754843
H         8.28330908633577   -0.00963863243789    4.43206945741920
C         7.67861950852487    1.62761417891738    3.20447993758666
H         8.13522970969077    2.37809069647992    3.83467341950710
C         6.93804389975834    4.60201012565120    3.18515146022847
C         7.81808760879895    5.60657161854847    3.55934210586836
H         8.63759278537224    5.87977815370533    2.91062226571181
C         7.63738288482843    6.25583065921981    4.76871022698511
H         8.32297686270767    7.03637146072242    5.06329893672579
C         6.57445919576262    5.91953381293937    5.58904507445764
H         6.43052172059891    6.43842331506742    6.52494967844117
C         5.68459027639121    4.92607346800894    5.20802297434751
H         4.84847807656347    4.67379214632601    5.84314959990819
C         5.86448830801806    4.26994955544042    4.00749125568780
H         5.17286152935574    3.49899549691980    3.68696159984242
Cl        6.56737255564711    3.14813117992816   -1.57073110645507
Br        1.04764379177948    7.64872979212132   -0.58377781033802
Br        0.60234919205766    5.16961022450038    4.47962237566326
Br        3.27825734670978    2.52034413485148    0.26438623814877
P         4.16161986360154    5.34616206450278   -1.58265836289155
O         2.57261383341969    5.09451198931896   -1.21761786873244
C         2.10799111816390    5.09738217423641    0.05849165020401
C         1.38916520917744    6.18415756560131    0.55607212785311
C         0.92815764953273    6.21200213726925    1.85971719751417
H         0.39709031652477    7.07640529809534    2.22630362928335
C         1.18345015645097    5.12943292032263    2.68323748244918
C         1.85392137067181    4.01254629589373    2.21632255597396
H         2.04294830437749    3.16599802728584    2.85721760161007
C         2.30784527081644    4.01275294046004    0.91134581967232
C         4.14128846623789    7.10919434653272   -2.04360717941808
C         4.71100613302709    8.06777126377886   -1.21677425004320
H         5.20168295310285    7.77193219113543   -0.29958704323221
C         4.62732657579870    9.40701556432307   -1.55701334075033
H         5.07169980612490   10.14975121484674   -0.91223204577563
C         3.97099752538062    9.78837752919300   -2.71428931406315
H         3.90297055934411   10.83345775123772   -2.97668792245469
C         3.39238562329736    8.83208041499533   -3.53505942486978
H         2.87126158315336    9.13110356226126   -4.43204669561190
C         3.47570869756076    7.49372819260150   -3.20447474153623
H         3.01918066517881    6.74331625794499   -3.83480009085624
C         4.21617055397738    4.51937163025657   -3.18520762212304
C         3.33617673540551    3.51483607110353   -3.55958977992944
H         2.51659334713010    3.24155371832826   -2.91099286291445
C         3.51707708391988    2.86563698204463   -4.76896708301012
H         2.83150438567358    2.08514878503938   -5.06373737928312
C         4.58012580861648    3.20198014012694   -5.58912189283622
H         4.72417753004343    2.68318739797887   -6.52506212997720
C         5.46995704828673    4.19539537823618   -5.20789033086745
H         6.30615380874756    4.44773712664318   -5.84288543994203
C         5.28986942821039    4.85144528244361   -4.00734979780094
H         5.98146521707899    5.62235509948765   -3.68664472118967

