67
CSD_code = RATPUY | q = 1 | S = 0 | Stoichiometry = C30H32IrN4(1+) | MND = 6
Ir        3.90186734951156    2.14539171898014    3.76545524431787
C         0.72760642319985    4.87309282969662    5.13371721199154
C         1.69638088633451    5.81765541969760    4.78612935992020
C         1.51445455001662    7.14261771771281    5.16943917071071
C         0.40617546819352    7.53917013689888    5.89381911726437
C        -0.55435267304649    6.60429015185227    6.23616941327862
C        -0.39050236461827    5.28710698384053    5.85076080037982
C         0.83736922272340    3.41055003038732    4.77164791978415
N         1.62596743592618    2.67788951135525    5.73944973284401
C         2.76813664257840    2.00720782698608    5.47368458266517
N         3.14550406738350    1.46820153154143    6.65407751145670
C         2.24922910065200    1.79198481397338    7.63814133811409
C         1.29252462929092    2.55380190573868    7.06227763541517
C         4.31428788631566    0.64054146940730    6.86517540598862
C         6.24055466472796    2.19656165987892    7.49607617469265
C         5.27060732769710    1.25860199701630    7.85800500589637
C         5.17366951829103    0.86876146224418    9.18999708459241
C         6.00473554376260    1.39757273832901   10.15953680754001
C         6.96572264267566    2.32590698900876    9.80103953403414
C         7.08006799025143    2.71156556689415    8.47874015268923
C         6.42128936669597    2.68779456191725    6.07906040909589
N         5.52578278827267    3.78356016038543    5.77465030451514
C         4.58522057081290    3.77991116455685    4.80513172885632
N         4.00517097873518    4.99865974149669    4.86889206330547
C         4.57898436793548    5.75205863577578    5.85853602950054
C         5.53638791264624    4.98689320639022    6.42898438139390
C         2.94196788495347    5.46842242674070    4.00605281796153
C         3.62605643429121    0.07929786153760    3.19646008870694
C         2.70813042393409    0.84276953543031    2.49156720743245
C         2.84575005009365    1.17352943606186    1.02286103769228
C         3.57328388601531    2.50951817368832    0.77751616362991
C         4.58711384327498    2.85080933199222    1.84168985426891
C         5.53948293715155    1.97499341101182    2.34027084695253
C         5.72869354700310    0.56397802489424    1.83171194657714
C         4.90943353110649   -0.47201554776593    2.62555703076466
H         2.24997225945155    7.88057243456209    4.88322543525149
H         0.28920520025484    8.57244799026562    6.17998670371161
H        -1.43017527720204    6.89958404040371    6.79201997144002
H        -1.15442676628456    4.56496889782204    6.10061491276522
H         1.30769881639950    3.26748336247511    3.79651554874219
H        -0.16723787006295    2.97647313040237    4.74101385707362
H         2.36019489229458    1.46323314592584    8.64977737284427
H         0.42019508304560    3.00835749284321    7.48207756119129
H         4.78531748858982    0.49170171639308    5.89158081377780
H         3.98729041994381   -0.33211761517730    7.24697401947084
H         4.44073926817394    0.12611035205417    9.47064338978222
H         5.90872969622930    1.07930582627528   11.18555386079031
H         7.62854983272031    2.74056546686093   10.54397205099340
H         7.84733522732325    3.41925577233829    8.19953192701517
H         6.22732476302811    1.89975598162576    5.34835447184703
H         7.45200395775995    3.03448252990974    5.95244904747597
H         4.26790515440245    6.75189602831279    6.07597678546264
H         6.20882633873145    5.20031482044092    7.23274867106511
H         3.29110442312145    6.36154058980104    3.47762498656704
H         2.75036264566183    4.68268146782636    3.27264176727000
H         3.25218881422834   -0.49448967503651    4.04326427181324
H         1.68379528751930    0.84439429049906    2.85855029483073
H         1.85157603731368    1.23286928450104    0.57777463570444
H         3.37079302089881    0.35921290745969    0.52383551361126
H         2.83681366792946    3.31547513306606    0.73606934236888
H         4.07100760676200    2.48648003981730   -0.19652643667750
H         4.81237401630497    3.91506460859059    1.89357062355005
H         6.43004901989834    2.41628283874808    2.78307629346119
H         5.46167982664003    0.52918800323807    0.77562630706635
H         6.78466083179548    0.29973749236827    1.90317703917306
H         4.67784594443853   -1.32901028444628    1.98603395714446
H         5.51614553790001   -0.85027065571994    3.45168388918637

