105
CSD_code = RATPEK | q = 0 | S = 0 | Stoichiometry = C50H34BF15NiO2P2 | MND = 5
Ni        7.81705813251064    6.72065873563183   -4.21816234412385
P         6.92964537060791    4.74594608611936   -3.94408343194449
O         7.77373618882480    3.60369933894289   -3.18421396098860
C         5.38781395671694    4.53762464816676   -2.99567705154122
C         4.16130819363938    4.78952767731361   -3.59955110884758
C         2.99293174492343    4.67768156739488   -2.86895759146466
C         3.04168317958779    4.32051040349606   -1.53071787184832
C         4.26243520918987    4.07326559620198   -0.92538535254884
C         5.43402741923984    4.18713114637240   -1.65254416381312
H         6.38700768834303    3.99471707599322   -1.18376001111007
H         4.30214060596748    3.79429108197964    0.11719548897828
H         2.12835060091709    4.23415449557590   -0.96144521702058
H         2.04149137671379    4.86750514464528   -3.34340409426715
H         4.12480611847373    5.06141112030360   -4.64515908822637
C         6.44427519434094    3.96874934592070   -5.52015761201316
C         6.45933387065028    2.59096252183074   -5.68609255260943
C         6.08165594468016    2.04300929156586   -6.89878593414354
C         5.68761142320199    2.86546027359363   -7.94258979899334
C         5.66768232460743    4.24114231476524   -7.77638306991730
C         6.04769916018594    4.79187469075947   -6.56663660084549
H         6.04781849943490    5.86536646646790   -6.42454758488086
H         5.36379513045344    4.88320639265058   -8.58941114447749
H         5.39872344156165    2.43321476691033   -8.88885124396567
H         6.09515612467461    0.97124524868016   -7.03169565212643
H         6.76933523448910    1.95784398793627   -4.86742908810171
P         9.94745122404114    6.28589467699165   -4.21973880231307
O        10.91200817381298    7.09128176069731   -5.12618444550208
B        11.40368326527815    7.25565489917420   -6.52636494627697
C        10.28574404573893    7.94900757668517   -7.51443128867663
C        10.64897018253407    8.84100735692591   -8.52219187124945
F        11.93450805541521    9.16880551942428   -8.70798569696457
C         9.73500885032842    9.43363642234595   -9.38883879443457
F        10.15478191532296   10.28564264836669  -10.32740711411238
C         8.38107725591820    9.14257152379874   -9.27714073968294
F         7.48711572591754    9.70459051735748  -10.09389445947528
C         7.98002365815268    8.25034834881168   -8.29415719415996
C         8.92534968299351    7.68042892612851   -7.45035947133504
F         8.43075123784078    6.80795314909764   -6.52786428613317
F         6.68285697733770    7.93648864294556   -8.14797329885216
C        11.87455199691203    5.78796042115681   -7.07819227738153
C        12.75810022883102    5.04101064348025   -6.30310249552330
F        13.23725097770562    5.55980589664856   -5.16176217235829
C        13.17884264814094    3.76394310717206   -6.64509006957211
F        14.01251385322275    3.08548483317301   -5.84639977329488
C        12.71116515203975    3.18021298179555   -7.81570624373226
F        13.08085638305967    1.93953174030749   -8.14862623771068
C        11.83759565968831    3.89609646534085   -8.62108000168391
C        11.43897545172179    5.17527226404247   -8.24369673982395
F        10.57255114337806    5.80072540805475   -9.06142132778151
F        11.36014038685018    3.34462705837164   -9.74385157269815
C        12.68409011434273    8.26780749615084   -6.34574074942524
C        12.53446355490825    9.41667248569700   -5.57677565980299
F        11.32755759516889    9.73034051600789   -5.07309936096279
C        13.57577435729123   10.29586953173125   -5.30594595085409
F        13.36525162792109   11.38027217983840   -4.54635024733510
C        14.83729942044879   10.04460324140366   -5.82899490272891
F        15.85409715071262   10.87373916070626   -5.57525966021094
C        15.02093043490637    8.92281311027812   -6.62720103370561
C        13.95405938905171    8.06362833440049   -6.87219384181496
F        14.19755806494934    7.01586731468930   -7.67461159665101
F        16.22382166550772    8.67187941868172   -7.15475185992600
C        10.29889067445828    4.50445805536413   -4.58962923479741
C        11.15032761431370    3.72632823134610   -3.81259578232799
C        11.39494986714129    2.40643097339281   -4.15714344212653
C        10.79201744641090    1.85255660718168   -5.27437799728507
C         9.94258804251342    2.62231039159874   -6.05423982104813
C         9.69670359184837    3.93977144206458   -5.71196897617953
H         9.03421855110064    4.53797502893958   -6.31930508554959
H         9.47081588131372    2.19775224350927   -6.92760277504953
H        10.99111141914828    0.82637911127400   -5.54245309845011
H        12.06773317671937    1.81375817308646   -3.55655544340046
H        11.63542882786976    4.15642399639709   -2.94918526019872
C        10.70332624210376    6.45250650412258   -2.57460148835413
C        11.96297082932442    6.99975306888310   -2.38574634859768
C        12.47479301370523    7.11594786655904   -1.10475708360744
C        11.73151962361242    6.69012075450270   -0.01587788750800
C        10.46920060690525    6.14660820062126   -0.20220776320451
C         9.95479395128510    6.03422750623053   -1.47971772624694
H         8.96465977131518    5.61910488487497   -1.64575015088668
H         9.89008370645066    5.81790201963589    0.64841538990841
H        12.13373827315460    6.78402039389862    0.98173974074887
H        13.45659858780259    7.53931500739467   -0.95470738657332
H        12.53194294977538    7.32207938449131   -3.24379514424821
C         8.28523504658100    8.69862766440514   -4.16567185331234
C         6.94797612116750    8.47531234916097   -4.56004970250570
C         6.04334860478493    7.73924272105650   -3.79555438578214
C         6.02191619579449    7.72999143007997   -2.28748871666707
C         5.77173014484392    9.12985371392574   -1.68501397193955
C         6.48299101166605   10.30476905863827   -2.35733769793827
C         8.00675042708349   10.32481333297293   -2.24337912664841
C         8.73149216392734    9.07645985369624   -2.77386633502361
H         9.80162813196045    9.29066027490845   -2.81183170035416
H         8.60305864685612    8.26775398201385   -2.05303283438393
H         8.36991970499143   11.19874744374508   -2.78867818094417
H         8.29002792382384   10.44911682755093   -1.19597040298530
H         6.19719604506596   10.34556191735807   -3.41033449021227
H         6.10784529172649   11.22128635121149   -1.89481278857865
H         4.69839123600850    9.32977125073531   -1.73713618689245
H         6.04716598443673    9.09651275432994   -0.62899467805843
H         5.21732964684466    7.07239362826325   -1.94983051156980
H         6.95324614507404    7.31728383904754   -1.88283614661739
H         5.07653944448948    7.53606364676199   -4.25112719252526
H         6.68081728779245    8.67444319320912   -5.59632082947968
H         8.92138411528413    9.13751264924052   -4.93185594209764
H         8.70539839012359    3.58671727520493   -3.43968129576785

