99
CSD_code = RATQUZ | q = 1 | S = 0 | Stoichiometry = C48H44N4P2Rh(1+) | MND = 4
Rh       15.51609041028785    2.56587091170433    3.83261940520418
C        15.29004800410415    0.15576796625733    7.48363757094700
C        16.41101982484766    0.92579948689410    7.80382884803638
C        17.20598607828645    0.54465278825118    8.88031738665486
C        16.91983867218346   -0.58248636521953    9.62652713905864
C        15.81013323672084   -1.34561401297484    9.30952087297608
C        15.00494208587384   -0.96911706846554    8.25166142515765
C        14.36507769483971    0.47384434875936    6.33212192460285
N        14.82698177228874   -0.10767585635782    5.09101855491700
C        15.21832525948463    0.60032118208820    4.01505495577751
N        15.52450443102483   -0.30971079139155    3.07151913439520
C        15.32413911864894   -1.57783922192815    3.55090717153726
C        14.88512821006817   -1.45123767995267    4.82313161328793
C        15.96531561678123    0.00915775396849    1.73155985693458
C        18.50250544602665    0.33293871664600    1.80975310397351
C        17.38571638116501   -0.44178632834953    1.48590218649142
C        17.57841312522610   -1.69713471448286    0.91714211933650
C        18.84459072663209   -2.19679035486058    0.67959805621150
C        19.95061628044840   -1.42930434521396    0.99894585337464
C        19.77189717527893   -0.17512148257475    1.55061551115875
C        18.40699876392906    1.70647598413027    2.42973020849575
N        18.33927233381643    1.64905443798073    3.87415059462163
C        17.29656113204834    2.07723748628722    4.61332840711136
N        17.64279517087602    1.84825907843787    5.89444009696610
C        18.89446337089057    1.29174211793651    5.95913174458581
C        19.33269055075833    1.16750301672857    4.68633619550964
C        16.81037764755106    2.16194042740092    7.03387545249060
P        15.93374430803436    4.74130105282926    3.43607536478484
C        17.43939406270164    5.03162410707751    2.44879517599146
C        17.45387281050138    5.11476007256772    1.06199110049654
C        18.65531951555278    5.24095872206756    0.38529760940094
C        19.84964624399776    5.27383882358501    1.08456545506783
C        19.84413711749053    5.17529902293291    2.46812153747233
C        18.64701753996518    5.04663564349526    3.14456796230709
C        16.11784697123871    6.06250749003544    4.67797032550584
C        15.77167128794933    5.81097439644888    5.99855912383847
C        15.86616579179888    6.80953219324760    6.95117604074821
C        16.30831118862584    8.06937014255533    6.58456246375368
C        16.65452510617573    8.32794314585499    5.26685662575074
C        16.56043734907344    7.33096157379610    4.31458590614125
C        14.55081234245869    5.47439306109615    2.42617292187383
C        13.85713145079312    4.38493718324263    1.61674787130743
P        13.59276333238852    2.94729790900712    2.75438551494063
C        12.81598743072191    1.66038269208018    1.72951573615101
C        12.25940931208961    0.59090222043082    2.42914165347208
C        11.71848843194933   -0.48506660047256    1.75445444827036
C        11.73495998917950   -0.50723008277039    0.36764489947294
C        12.29143833425732    0.54842298963707   -0.33421464334712
C        12.83663626636762    1.62818453717878    0.34103395143606
C        12.17490536361059    3.54476202913194    3.72415151463391
C        10.89486770721228    3.65346366716012    3.19129713820275
C         9.86778412619886    4.14911952564441    3.97313463921177
C        10.11145467566429    4.53835804907418    5.28172303542626
C        11.38525511458376    4.43041212141858    5.81642020594712
C        12.41249380548747    3.93111227424905    5.03750346195986
H        18.06031128009183    1.15118759970099    9.14494002559615
H        17.55307413140054   -0.85760952300095   10.45532710880768
H        15.56751603967714   -2.22322411613041    9.88789550173549
H        14.12643079641825   -1.55494752092527    8.02201642670687
H        14.27451354181074    1.55258657119739    6.15515591017995
H        13.36909455858215    0.07702421778479    6.55566474698323
H        15.50594815588714   -2.45284988024721    2.96308160958476
H        14.61659571758879   -2.19554891151611    5.54309730970638
H        15.85041456444557    1.09529007859751    1.61226056356147
H        15.29893516070335   -0.48853335822212    1.01914864581841
H        16.71631169037208   -2.28934624594515    0.64536849756613
H        18.96651495780132   -3.17417293889720    0.23966368121197
H        20.94580678501018   -1.80074671514168    0.81091891945366
H        20.63702962100341    0.43186561665810    1.77614918266844
H        17.51203458229386    2.24655461554042    2.09436404446295
H        19.28704715228780    2.29162513403157    2.14269497721394
H        19.36332685714847    1.03219583403048    6.88498040887268
H        20.25374255447032    0.77926083147041    4.30516036542009
H        17.35898094269588    2.83849635664466    7.69775342755832
H        15.93637813618289    2.69093398240483    6.63762013408448
H        16.52938824434150    5.09088008092458    0.50343714588768
H        18.65889428821070    5.31651170669974   -0.69187730862916
H        20.78348421558627    5.37751907673749    0.55339434034459
H        20.77462654725075    5.20135012640739    3.01600623891185
H        18.63190462575006    4.96779690049191    4.22464506872165
H        15.42727815882934    4.82210717156203    6.27274752493168
H        15.59606473866717    6.60731191243644    7.97722685234483
H        16.38506635611942    8.85103506661486    7.32475494541274
H        16.99942705319776    9.31087986603229    4.98292922201179
H        16.83804050040195    7.53009688033836    3.28869700809012
H        13.84394582383051    5.89216112166920    3.15289027595015
H        14.91272987641518    6.29255505713004    1.79743222866342
H        14.50447853462740    4.04654379293877    0.80149923711583
H        12.90873770588327    4.73496497825913    1.19814787810616
H        12.24946656824158    0.62462810963928    3.51211603595770
H        11.28215617904011   -1.30612193096102    2.30376082701292
H        11.31091111016065   -1.34543872062213   -0.16416097212902
H        12.30038382626285    0.53275399316852   -1.41396771732626
H        13.26838582974541    2.44346056935976   -0.22043842994095
H        10.70793791858836    3.34549710041905    2.17126223144949
H         8.87267752207425    4.23457219345398    3.56241154287623
H         9.30461271650311    4.92403237089009    5.88597275418959
H        11.57292613893552    4.73292643743924    6.83617865621987
H        13.42186279942757    3.83712906654267    5.42966049656946

