83
CSD_code = RATQOT | q = 1 | S = 0 | Stoichiometry = C41H35N4OPRh(1+) | MND = 4
Rh       15.39305045120222   -3.09273361753087    2.48654771397112
C        14.64153430240068   -3.48347160828080    0.84557769581821
O        14.15737261611282   -3.70827692273305   -0.16701107977068
C        17.19811193493911    0.71805564568313    3.56179388572781
C        17.72124538808469    0.59223253687430    2.27232672529501
C        18.73397654681608    1.45688384633919    1.86849440562142
C        19.23831213895262    2.42477553557199    2.71619435931308
C        18.72096854238692    2.54882907966855    3.99334567234531
C        17.70665286946398    1.70391496963688    4.40185905366175
C        16.09802594885672   -0.16735179068259    4.09692851403837
N        16.61007339761474   -1.39666227377106    4.66554769120308
C        16.31938270539542   -2.62666044195099    4.20295778059467
N        16.93572140652813   -3.48362678592172    5.03659642757931
C        17.60269063946910   -2.79866551973780    6.01731879493373
C        17.39780838053139   -1.48227087547850    5.78326160849198
C        16.85731757720642   -4.92499964472972    4.93342465912226
C        18.74358073740076   -5.67099436888642    3.37409911493537
C        18.20697114729268   -5.54353611535826    4.65809239793147
C        18.94632378816010   -5.99743103619583    5.74604874202387
C        20.19905380039782   -6.55796214722062    5.58508373512730
C        20.73043375301487   -6.68474731014886    4.31390036375619
C        20.00071650149166   -6.24897629862623    3.22430083396496
C        18.02763449626912   -5.20886432730111    2.12685131763849
N        18.25531185133272   -3.80452005809415    1.85699203383669
C        17.28908181392711   -2.86915640447065    1.80060513258855
N        17.91235925545264   -1.71946633628064    1.48574566952957
C        19.25790258207597   -1.93217056976488    1.33895679470512
C        19.47401130964683   -3.24698991414339    1.57288263883797
C        17.24758753498363   -0.44912137054503    1.28652370920217
P        13.40640722409002   -3.33219047673514    3.55738000418601
C        13.52238188652546   -3.76135684627616    5.32792284411214
C        13.90121516725619   -2.76551554029080    6.22558416865561
C        14.12351612143683   -3.07040420934041    7.55428817313454
C        13.97572151102613   -4.37554213348842    7.99937291936510
C        13.59934245070911   -5.36998942106067    7.11216687794072
C        13.37866304025134   -5.06809248200197    5.77880083562060
C        12.30777572234975   -4.63305785892551    2.91321445951072
C        12.92924622508139   -5.75932028992847    2.37861646418576
C        12.17518996256828   -6.80287267203946    1.87789934972514
C        10.79147011358524   -6.72235962242838    1.89969975783841
C        10.16895685082331   -5.60065862165899    2.42205993812364
C        10.92099118773883   -4.55589180465353    2.93097092858029
C        12.36581069241825   -1.84226434245912    3.57918285089350
C        12.57499674309130   -0.90813620380224    2.56888994893394
C        11.80814132063985    0.24088616339168    2.50994367441351
C        10.82717327040577    0.46242124117323    3.46339030466049
C        10.61672930258554   -0.46275739962206    4.47407242763397
C        11.38222708566124   -1.61327117852461    4.53700910132029
H        19.12626971780345    1.37696005956352    0.86488587132042
H        20.02332797707281    3.08286699815180    2.37855111495241
H        19.09766508174760    3.30478916664838    4.66420067710715
H        17.28983774685285    1.81912553011515    5.39216472445665
H        15.38272370867220   -0.45496817565933    3.31509370368116
H        15.55355521902052    0.37724712431681    4.87597312864662
H        18.16032526854068   -3.28981120919240    6.78671900208501
H        17.74552122430677   -0.61932896137033    6.31140788288057
H        16.13046203173746   -5.14584693858725    4.13967659269223
H        16.46425193974589   -5.31921035272085    5.87635633951715
H        18.52427065583349   -5.91929517069693    6.73775500273487
H        20.75209507608203   -6.90139479275581    6.44508877382875
H        21.70293723406531   -7.12855784233610    4.17022960978028
H        20.41012078703136   -6.37042165222431    2.23174992849536
H        16.93935395230839   -5.34234904517318    2.19985067206188
H        18.38989921434192   -5.79056533580339    1.27279341154565
H        19.94174134840115   -1.14927871058016    1.08633405527193
H        20.38026152751698   -3.81524816887701    1.56063217813028
H        17.45822831406640   -0.10038032718616    0.27025056639014
H        16.16943933472433   -0.63986933517375    1.37034066921501
H        14.00345764012373   -1.74662027873373    5.87441567273549
H        14.41002109821215   -2.29224604189154    8.24626731419627
H        14.14836781301195   -4.61400741510721    9.03777207359432
H        13.47660306562659   -6.38533899230205    7.45838011166855
H        13.08634894823603   -5.84734962352232    5.08889013992382
H        14.01558276091732   -5.80061422460183    2.35312399907042
H        12.66144654308190   -7.67397240757099    1.46493290530802
H        10.19879371125410   -7.53194275491414    1.50240797715206
H         9.09139402818971   -5.53665314031545    2.43066760875997
H        10.42971595330988   -3.67993205467603    3.32880537521948
H        13.34313847802699   -1.10309485410785    1.82388358159574
H        11.97164275240672    0.96225603472435    1.72343150683593
H        10.22596405669900    1.35756576901657    3.41997212713096
H         9.85178982142934   -0.28722210243480    5.21552292490754
H        11.22397667432494   -2.33015295198026    5.33126135608251

