35
CSD_code = RATQOU | q = 0 | S = 0 | Stoichiometry = C12H18O4Pd | MND = 4
C        -3.59680669340737   -2.33916764392823   -0.10643582302636
H        -3.84285131597482   -1.86820865725598    0.84197991223659
H        -3.59931643032064   -3.41953633636735    0.01131046229572
H        -4.35290083693274   -2.06400280730628   -0.83925050465029
C        -2.23204978681833   -1.84563414069773   -0.54201202304302
C        -1.61528059369668   -2.43409718628999   -1.65998170790240
C        -0.31136848554599   -2.08865435957510   -2.05568559754018
C         0.33626270947401   -2.83527415854986   -3.20440658315090
H         1.37524635256742   -2.52279378457937   -3.27047174415568
H        -0.16020157774760   -2.59633827815436   -4.14275138980324
H         0.28881902465465   -3.90908407074007   -3.04503157754337
C        -2.35376408932684   -3.50992685982196   -2.42096920757628
H        -2.04797027692197   -3.53155563142426   -3.46187218303595
H        -3.42494235188925   -3.33615430097837   -2.39981169697001
H        -2.16289504127937   -4.49515296586877   -1.99226214882473
O        -1.76141738246314   -0.92189405725544    0.18826798427306
O         0.42987269997057   -1.19955346635118   -1.53758716004941
Pd       -0.00022275612577    0.00036940393126   -0.00034763198080
C         3.59680935770945    2.33916828290881    0.10642722906733
H         3.84281946692522    1.86824257013877   -0.84201661497207
H         3.59927160747676    3.41954168070628   -0.01129351905585
H         4.35295760369436    2.06400733772029    0.83919379418248
C         2.23213228885917    1.84549894308441    0.54213530884497
C         1.61533467375690    2.43400589127560    1.66006439361479
C         0.31140653987212    2.08858862287454    2.05574511070882
C        -0.33625568703644    2.83527178548222    3.20440975946020
H        -1.37526177876333    2.52281241112454    3.27045981032601
H         0.16018917295968    2.59634978164081    4.14278132809610
H        -0.28878204236632    3.90908462669670    3.04499472074448
C         2.35376856992089    3.50990862077076    2.42099389528044
H         2.04800432857621    3.53153115876668    3.46190736775833
H         3.42495668039348    3.33619953263561    2.39980715249235
H         2.16282599073772    4.49511672251278    1.99228285370899
O         1.76146390735706    0.92181621969241   -0.18820021774964
O        -0.42985384828902    1.19951511318183    1.53762624793956

