29
CSD_code = RATRUA | q = 0 | S = 0 | Stoichiometry = C11H12CrO3S2 | MND = 9
Cr        4.19977213220327    0.66160348971900    9.08635622056788
S         5.38694598761785    1.98810878303308   10.85135780697531
S         5.13338393748602   -0.84881024550369   10.85123486723202
O         5.89552572668869   -1.02357413930225    7.30417619911258
O         6.18006568956052    1.99468015304044    7.30207831457035
O         6.31691872171574    0.55815054437633   12.79255620219233
C         2.19884983363687    0.04773602008007    9.97982610355364
H         2.00806203473063   -0.65173131140380   10.78097076458960
C         2.21100108919874   -0.26163109985264    8.60788032473834
H         2.00576929120929   -1.22925960367724    8.17578098049045
C         2.35795284206825    0.95246604563975    7.89003297301341
H         2.26213781462603    1.06812045673754    6.81923481001816
C         2.45228852300986    2.00336499125021    8.83306426210687
H         2.46021451416397    3.05828612377010    8.60590641536085
C         2.35503754723716    1.43808999693881   10.12041849958544
H         2.28563023964735    1.99012178756810   11.04691809591306
C         5.24407466535416   -0.36082258707481    7.99577519403581
C         5.41920099719560    1.46683809853538    7.99673933741171
C         5.68227966341290    0.53525053082117   11.64758051785704
C         6.58463625226054   -0.67158121682886   13.49072126141702
H         6.79822519943198   -1.44682338346558   12.74248083523399
C         5.36317421107863   -1.06999832871188   14.31090427076396
H         4.51103896406910   -1.24413116387396   13.65850761541756
H         5.11595570349318   -0.27963134171735   15.01547032511077
H         5.57345415905107   -1.98334302037605   14.85886485791968
C         7.80600089000274   -0.41466595258250   14.36000801404619
H         8.64572795369562   -0.10364276720747   13.74470801397176
H         8.07397460763951   -1.32131808452526   14.89384071365639
H         7.58990080851926    0.37294722458142   15.07670620314632

