99
CSD_code = RATRAG | q = 1 | S = 0 | Stoichiometry = C48H44IrN4P2(1+) | MND = 4
Ir       15.49888608317897    2.57957810755381    3.84577802883925
C        15.38017524030343    0.09699049055709    7.49850202872881
C        16.50750545373257    0.86613476351700    7.79837395507844
C        17.33295533523350    0.47080774888063    8.84656576805904
C        17.07196616512430   -0.66818073780086    9.58404166134835
C        15.95599746540137   -1.42989734397379    9.28732429982547
C        15.12056876381573   -1.03967715875822    8.25820193801419
C        14.41880791403191    0.42767427711565    6.38002209053752
N        14.84343858141820   -0.13797633031015    5.11896348643835
C        15.20526118467788    0.58382617931681    4.03575061451072
N        15.50278491701377   -0.32843840358659    3.08436014158403
C        15.32490974234015   -1.59884727947803    3.56517090166013
C        14.91027119578121   -1.47956959278295    4.84602592840175
C        15.93280713110305   -0.01035376842613    1.74170235731429
C        18.47338992829140    0.31364389889991    1.78274620138038
C        17.35100728292401   -0.46297420685617    1.48289819599188
C        17.53498001541838   -1.72295373588053    0.92136329705760
C        18.79669121702269   -2.22613874155664    0.66815988504173
C        19.90791817883902   -1.45665811082584    0.96308161440614
C        19.73795276020561   -0.19792985518056    1.50702521252137
C        18.39275780331018    1.69193103796236    2.39579634539343
N        18.34963953663675    1.64060210729006    3.84025767213913
C        17.31421571578027    2.06553532932147    4.59998039909662
N        17.69023050929957    1.82447254328391    5.87575638929329
C        18.94232904328035    1.26762799388956    5.91189728399513
C        19.35688202590214    1.15282867852158    4.63065455087746
C        16.88427697212823    2.11712603390787    7.03936366343991
P        15.91751518951209    4.77955197192742    3.45152039894374
C        17.43497292447106    5.06612331147185    2.48137345695846
C        17.46822389199611    5.12741847256864    1.09372210004489
C        18.67919779426163    5.22817450919950    0.43013700055028
C        19.86539556714164    5.25386138878621    1.14360504775024
C        19.84135934009554    5.17470017082143    2.52826138720020
C        18.63449845418850    5.07255894764749    3.19128040060439
C        16.09094311693258    6.10693245075842    4.69231562706170
C        15.76187791858819    5.84631875294023    6.01565950609118
C        15.85518403249223    6.84296524579934    6.97041637459637
C        16.27926344911603    8.10897925508066    6.60362826605245
C        16.60946562334201    8.37597923213697    5.28365334665727
C        16.51680726983719    7.38100804749861    4.32904999045296
C        14.54866653709422    5.51488152587798    2.41932873455532
C        13.84824234645899    4.41961449286568    1.62246392986970
P        13.54469946269984    3.00129963287262    2.78130991536097
C        12.79833866862144    1.70043033613403    1.75074731738343
C        12.25193682027811    0.62622979683626    2.45164288369931
C        11.74809044466046   -0.46905308993678    1.77976609268796
C        11.79325417537282   -0.50741837533668    0.39386649204482
C        12.33988035918649    0.55232138048903   -0.30933767670580
C        12.84764173650327    1.65160132116940    0.36358710681074
C        12.08413491274270    3.63356454107896    3.67196134589669
C        10.82345106429530    3.68620667496839    3.08696982564196
C         9.75917765343619    4.21274208958147    3.79533803914397
C         9.94613593865382    4.68998478431903    5.08362374994375
C        11.20048922626172    4.63976038674377    5.66971903096664
C        12.26519509628160    4.10922194521998    4.96501683163349
H        18.19206560364724    1.07642964947738    9.09723268913783
H        17.72931916543002   -0.95286276515394   10.39053807336221
H        15.73159156032038   -2.31645164514125    9.85937996158368
H        14.23700960821834   -1.62442842585872    8.04596556949364
H        14.32224959938076    1.50586030611160    6.22341845367650
H        13.43192880943203    0.02461710982707    6.63036506737009
H        15.50370137055484   -2.47094364125797    2.97233193920666
H        14.66413704665105   -2.22870574574099    5.56878567574509
H        15.82161700935267    1.07115800887693    1.62097353991128
H        15.26072145455429   -0.50685093952941    1.03395864713467
H        16.66853416247938   -2.31639424309226    0.66668015316008
H        18.91079966945994   -3.20731263200514    0.23462956844625
H        20.89994354378673   -1.82972044338663    0.76207593426335
H        20.60690837725006    0.41061757889929    1.71279474462603
H        17.49878856984048    2.23043815729289    2.07044163082112
H        19.27022609553225    2.27179154381271    2.09099527613746
H        19.42929977120247    1.00048269441215    6.82604259305807
H        20.27057513411204    0.76741252965272    4.22982297727664
H        17.44959626457478    2.78064993822625    7.70220423469382
H        16.00134847153106    2.65095817376571    6.67932231146840
H        16.55075061121634    5.10729539237996    0.52348202035354
H        18.69660346548464    5.28856975991852   -0.64786259740201
H        20.80710022581378    5.33669848104505    0.62281932723292
H        20.76523184025453    5.19474764319247    3.08742445774171
H        18.60494435792287    5.00902007394106    4.27169623261820
H        15.43353742091490    4.85237756912733    6.28859219517179
H        15.59822258382810    6.63434058613129    7.99842106238745
H        16.35434959913100    8.88921492633276    7.34554759657939
H        16.94089130318253    9.36355120281833    4.99996603212923
H        16.78325404440108    7.58593080986698    3.30126079172052
H        13.84101858929071    5.95578581410124    3.13055347253844
H        14.92452434763116    6.31588805811167    1.77701346698435
H        14.50050590161376    4.05902206137295    0.82150996007907
H        12.91173974723764    4.77790831518937    1.18442496758083
H        12.22083700380174    0.67226357488878    3.53338182650645
H        11.31911258212202   -1.29313250704519    2.33029430549311
H        11.39958703896122   -1.36133803684817   -0.13601560120726
H        12.37169688961478    0.52440112847842   -1.38836823524468
H        13.27064920588289    2.46985062518663   -0.20004433144343
H        10.67916084921702    3.31026562835926    2.08301502479113
H         8.77988316100843    4.25278617712549    3.34241691151004
H         9.11138963962729    5.10079277501490    5.63078780087639
H        11.34566425194726    5.01321488871765    6.67249520277539
H        13.25513887508008    4.06045672043847    5.40293863598683

