25
CSD_code = RATRIO | q = 0 | S = 0 | Stoichiometry = C10H6CrN2O3S3 | MND = 9
Cr       -4.70806106707583    5.99246494426996    2.21970555335865
S        -2.80563676036331    4.35984131199706    1.87430215266499
S        -0.20139535802406    3.99215317430675    3.38043320006333
S         1.38266471012179    5.10727777524163    5.74625040140293
N        -1.99761878411120    5.74106481765782    3.97524172208547
N        -0.99177578385878    5.88181030309805    4.86290491910217
H        -1.07214683844803    6.59250761234866    5.57591454689307
C        -4.65790679279324    5.22616418793121    3.89797127989435
O        -4.71357261784417    4.79054657862036    4.95512410841387
C        -3.31153138925190    7.19656785831845    2.14001327026571
O        -2.51977124104283    8.02074857615923    2.07196961708720
C        -4.65649784866552    7.18617883391861    3.59554771376081
O        -4.58493687541016    7.92674253313354    4.47987960037748
C        -1.74725123048040    4.79782883338898    3.12923507339426
C         0.08591369290133    5.07308165709912    4.76626165651020
C        -5.30989238819629    6.17336084085584    0.07508109435194
H        -4.73946909654723    6.52441805697920   -0.77231401285186
C        -6.18502483621395    6.94983397824616    0.86193165964171
H        -6.39331419109427    8.00168380713953    0.72928283325034
C        -6.87845512866767    6.07568252001162    1.73530801976983
H        -7.70265637837575    6.35138796224945    2.37716351861384
C        -6.43181015871665    4.76192732402968    1.48053337815619
H        -6.85926066293511    3.85814649151191    1.88902428432909
C        -5.47828637833479    4.82157590990601    0.44452499332890
H        -5.03100659656458    3.97200411158807   -0.05179058385686

