117
CSD_code = RATRAH | q = 1 | S = 0 | Stoichiometry = C58H54AgO2P2(1+) | MND = 2
C        16.92739340421322    6.70687859275836   13.15460244626688
H        16.84503184535219    6.36782433933061   12.12527509502260
H        15.99162893765703    6.48736133264561   13.66619981617560
H        17.72321624973477    6.14247619665416   13.63401439124294
C        17.23966400356470    8.20455289937360   13.21412259732131
H        17.38721723192567    8.48278819929165   14.26338809057500
C        18.52957761086616    8.52046788171853   12.45357279575749
H        18.75023336763740    9.58430522125123   12.50410553653997
H        18.44310299180434    8.23690849282481   11.40788083538689
H        19.36231422749005    7.97393003427925   12.88885793514142
C        16.09013367551648    9.01189024951807   12.66932801480385
C        15.64177809395586    8.83394919623468   11.36403704519935
H        16.13729102639244    8.12500568709615   10.71848191373005
C        14.56925719623379    9.55254063653641   10.87769693863829
H        14.21885557250485    9.42093131922625    9.86501405224900
C        13.91748964922272   10.47921781762420   11.68808435950258
C        14.37981921489763   10.68910112851841   12.98577966906432
H        13.89515061482116   11.42242881127826   13.61883164074431
C        15.45094398878953    9.95821845113372   13.46404084802386
H        15.80269781528436   10.12707545635203   14.47241879561621
C        12.76964598291802   11.22477274571325   11.14693189405540
C        12.45481795593351   12.54422037194141   11.48440867997867
H        13.07979259015318   13.26686576444961   11.98270235952140
C        11.62070007415515   12.79643415735101    8.57262546448165
C        12.96004688583056   12.85861447635723    8.20872139451067
H        13.71524186142436   12.95515912495603    8.97724195407416
C        13.31302791731484   12.78392012724601    6.87399201127575
H        14.35341988707188   12.82698595428683    6.58915124924603
C        12.33140817015647   12.65655914915842    5.90386438153170
H        12.60796570264379   12.59941774698641    4.86220827117141
C        10.99533957563649   12.60441408287998    6.26750973218188
H        10.23186796414489   12.51053708742934    5.50980779763456
C        10.63333505406168   12.67457625770938    7.60134537085112
H         9.59109970164154   12.63995854756724    7.88849730379859
C        10.90674309632405   14.74258015973161   10.54335137504292
C        10.53805373523548   15.54537109817969    9.46937521507031
H        10.42653429433431   15.11169063116612    8.48604569349417
C        10.32376005063211   16.89976837209320    9.65580508822869
H        10.04042400631156   17.51738760318740    8.81725468345532
C        10.47672289694580   17.46309174902642   10.91190666861250
H        10.31366816195448   18.52041312014506   11.05364763101867
C        10.84074560592505   16.66752372561137   11.98659988825093
H        10.96329576270072   17.10452015009782   12.96625092729488
C        11.05210715781105   15.31323494568061   11.80541266680743
H        11.32099859701351   14.69044973426240   12.64664981416249
C         9.56112265105549   12.20958267936445   10.64086631922545
C         8.66680031410561   12.89155162959382   11.46926155227544
H         8.95679009367344   13.82852743837874   11.92578683822626
C         7.39336335634288   12.39038160480214   11.67835083198778
H         6.70350724135097   12.93699117058655   12.30254646479901
C         7.00125825623590   11.20636186986405   11.07752213543976
H         6.00654025599806   10.82100735318356   11.24159083703526
C         7.88048576304051   10.52548727793267   10.24940179491298
H         7.56231569609993    9.61821735971809    9.75763560620575
C         9.15579037653473   11.01873193186581   10.02175625789204
H         9.82091028497769   10.52947160732897    9.32229147157723
C         7.86374425648928   16.69303874777335   14.31168584215223
H         6.89441242837290   16.20491586603738   14.25361438743050
H         8.36925381083346   16.57149994868046   13.35499661415656
H         7.69852717032784   17.75387286207100   14.48213876725257
C         8.70506930920772   16.10586525636950   15.44811131016339
H         9.63675359573422   16.67811060019282   15.51623943395168
C         7.97240984685870   16.23094857841309   16.78592841860841
H         8.57719013777798   15.81950895232827   17.59087759433404
H         7.02534407452026   15.69819548511692   16.76109963954570
H         7.77153212026811   17.27663564384989   17.00459096830069
C         9.05448028742519   14.66761346226731   15.16641935802816
C        10.38384574323250   14.26405341680394   15.09129085963227
H        11.16754113292991   14.98945699775685   15.26064412467192
C        10.71947448680370   12.95310809231335   14.81018050850913
H        11.76011342792343   12.65729064670708   14.75667856576711
C         9.71777830165085   12.00988252038981   14.58923396438122
C         8.38453085234301   12.40073624726002   14.68949055228692
H         7.61898603839610   11.65329812733788   14.54494614287506
C         8.06193540715392   13.71075339198801   14.97741874112938
H         7.02306293961485   13.99238073045819   15.05680369567651
C        10.03248559721831   10.60788901904736   14.27077332340644
C        11.14423817950950    9.91635037950766   14.75983799757205
H        11.79088714969576   10.19466032065919   15.57557238780273
C         9.26508604878366    7.53003453967909   14.86791402682798
C         8.67991188724982    8.06080514578903   16.01073884164658
H         9.13540248557577    8.91557901964166   16.49256604004145
C         7.51894663400312    7.50087377429902   16.51103720392021
H         7.05972464678787    7.91468602085175   17.39607149604290
C         6.94790657211827    6.40831715132135   15.87764954499665
H         6.04211550926769    5.97148093678935   16.26946712050892
C         7.53792748728400    5.87387338618207   14.74351027517249
H         7.09439496585832    5.01938655763738   14.25468590876528
C         8.69799891715531    6.43028753534124   14.23384390663699
H         9.16460771239228    6.01192465937772   13.35229282473221
C        12.10298210329435    7.25490780034496   15.09371944212673
C        13.37121704046426    7.79567165723590   15.29052349340461
H        13.58494544940410    8.79757791434317   14.94653372944355
C        14.35778255514663    7.05161648768687   15.91070014091816
H        15.33632801408902    7.48023204266255   16.06706349322624
C        14.08956255574392    5.75986126715667   16.33476131309681
H        14.85946220673523    5.18025659855522   16.82047551610584
C        12.83205731721115    5.21438360277115   16.13562783035792
H        12.62077932139232    4.20859537211512   16.46525118530484
C        11.84073797504556    5.95697578102066   15.51842090616469
H        10.85855101904976    5.53076984293429   15.37308986534211
C        11.04077310833999    7.89097398028545   12.50487265513229
C         9.97119364740418    7.91867170764194   11.59879517514631
H         8.97610933683247    8.14781752566861   11.95704145373817
C        10.18457766875346    7.57439810156192   10.27309333643704
H         9.35660882081883    7.57762529198560    9.57979327231699
C        11.44590432824357    7.19515639994588    9.83991845593884
H        11.60159840959920    6.91876544339923    8.80829800910362
C        12.50096723523775    7.15284156087989   10.73529624881309
H        13.47832155871077    6.83337912733044   10.40814474528217
C        12.30687477570060    7.50262785919049   12.06063001188044
H        13.13244740110652    7.44539735390236   12.75746449369805
P        11.19950232630736   12.96095091675271   10.32465633429911
P        10.81710691409728    8.25459342356423   14.28440867856171
O        12.01314985301374   10.70720620842710   10.23944664896289
O         9.22547470619300    9.89376491959646   13.56146600499424
Ag       10.91612149644836   10.53453704159714   12.20790673107092

