83
CSD_code = RATRIP | q = 0 | S = 0 | Stoichiometry = C39H34AuF6N2P | MND = 3
Au        1.19054775114382    1.42016634459049    3.38629462246794
P         2.77836620290762    2.17459372113819    1.96946920797237
F        -1.94640543205853    2.84416289193482    6.82974405526256
F        -2.38414360081306    0.86875851176216    7.50007140445392
F        -3.44046116942081    1.66669758744967    5.81648633129707
N        -0.54072344378958    1.86094338284649    4.63426636028963
N         0.75683898560979   -0.79023685037042    3.94971025928505
C         2.54200523835871    0.52541165190974   -2.29662408025726
H         2.49260828553917    0.11593528321092   -3.29463119346765
C         2.17377382158034   -0.25137534929166   -1.20955061720203
H         1.83738231769597   -1.26703344304670   -1.35284739223431
C        -0.21656284788816    5.52434774679047    4.47788424060949
C         7.06561858003530    1.31586092548200    3.33873727358796
H         8.06727500297624    1.10962719846453    3.68499722892216
C         2.96800430511591    1.83108898750227   -2.10802585314158
H         3.24775222312401    2.43637211365336   -2.95786990086578
C         2.40702052043476    6.72024519645632    1.54704127219200
H         2.29054251373170    7.78960393631245    1.45360801133706
C         0.05877188610359    4.19119941177970    4.72099281285159
H         1.01586650137423    3.89752896038668    5.12900592221558
C        -2.22276820525018    1.60656761004395    6.39072153934967
C         3.03889765983561    2.36380717320084   -0.83339756537802
H         3.37054589428244    3.38238068565980   -0.68290887852177
C         6.06420278373511    1.60643306205699    4.25280714594218
H         6.28439676398011    1.62610269871294    5.30982258977449
C         0.80012549535626    6.57555102009507    4.80679591180304
H         0.73820643254613    6.83046607769263    5.86499398312372
H         0.62613991886985    7.48050700398908    4.22977342329836
H         1.80721451746355    6.21617642977704    4.60439797129614
C        -1.45380823109187    5.87008870910399    3.94724634515813
H        -1.67543502504030    6.91045075313014    3.75424657015790
C        -1.15902079180032    1.04383199893366    5.44128344014764
C        -0.89193896950273    3.20761636117832    4.45978483277209
C         2.71475892983526    3.98048021477168    1.79282514627379
C         1.29983577705924    5.89129125997509    1.44551734391246
H         0.31915118242358    6.30979545081571    1.27863377786058
C         5.49909600313135    1.53716425538619    1.53122845852937
H         5.27543376061378    1.50301705123666    0.47428145779045
C         4.49514773597733    1.83438532802127    2.44551612584093
C         2.67632785507662    1.58095274212506    0.25875317944932
C         3.66198983015196    6.18187904375865    1.77828118871307
H         4.52111320950404    6.83084881098278    1.86544120026290
C         4.78076951503593    1.86050985712025    3.80826208468705
H         3.98288116375139    2.07584871176012    4.50865399441464
C         2.23275183031758    0.27628570567698    0.06687784797889
H         1.93887695366452   -0.31487926975994    0.92244510575926
F        -0.53155976587134   -2.79829539104780    6.56467198429236
F        -1.01257878123166   -3.33288261805152    4.54437127002646
F         1.04014752488855   -3.25838561069074    5.19613093146337
C         0.93654683524728   -2.55750077759887    2.29451439016748
H        -0.13689504533995   -2.67859260679834    2.29256757191875
C         1.45104488289795    4.52557381122587    1.57667797571607
H         0.59399637502259    3.86608704109142    1.52284761904651
C         2.90830693292515   -1.46464134982436    3.13552636802495
H         3.35348652918569   -0.74737095824272    3.81099631543396
C         1.52398726825378   -1.64387094953241    3.16304123650417
C         3.82256849040158    4.81218880748098    1.90157239633478
H         4.80175407557687    4.39079070722642    2.08401545073893
C        -2.12005091632626    3.57106781639814    3.92199300634734
H        -2.84940888121939    2.80901132526613    3.68926031186254
C        -0.07833578456735   -1.15434187654515    4.87028968694913
C         3.09131600399782   -3.10951220254804    1.41070518509071
H         3.70608327575414   -3.68026750643432    0.72909846616145
C         6.78183328294312    1.28079057483254    1.98316655083394
H         7.56287781501509    1.04786023595566    1.27452181954981
C        -0.14041037437334   -2.62755735669433    5.29223577407556
C        -2.40720677070090    4.90475417355484    3.66328259368432
C         1.71797791312209   -3.29369406518098    1.41358456438464
C         3.69753101438383   -2.19947707700851    2.27155818361220
C         5.18463595835774   -2.01479154505180    2.24125095496341
H         5.50709666607845   -1.32198876646721    3.01436334906897
H         5.49610332867110   -1.62116261456460    1.27359251877827
H         5.68822896878406   -2.96824901117123    2.39228936456986
C         1.06596355232916   -4.28052449889022    0.49278525074859
H         0.19011475824517   -3.84278563844542    0.01670377027117
H         0.73433943614118   -5.15110879738588    1.05832111031834
H         1.75872039014664   -4.61493804623950   -0.27593957642244
C        -3.73733494754089    5.27379409678788    3.07909525041021
H        -3.84077989710760    4.85551980135478    2.07796568554080
H        -3.85135588308976    6.35322226942853    3.01814666753036
H        -4.54207229941233    4.87042680102702    3.69124081313552
C        -0.95744142358769   -0.32744473310620    5.57609188369046
H        -1.55140014177546   -0.81726042016659    6.33041912030727

