65
CSD_code = RATSIP | q = 0 | S = 0 | Stoichiometry = C23H36CoO4P | MND = 5
Co        1.73114306911590    4.15663441543669    9.80176383752433
C         1.35993210390584    3.00311162068140   11.21234298974147
O         1.24199374071625    2.53723042328308   12.24547849199432
C         3.26811004136058    3.79899238230205    8.99474973666978
O         4.31580795164116    3.63635868064738    8.54584512931029
C         0.67345622873530    5.56383695496538   10.00750836991942
O         0.01636037053937    6.48539804473243   10.21750923306092
C         2.99090421896316    5.20144477325063   10.87141553308663
O         3.32609142315957    4.76722184365445   11.93961109397369
C         3.51453297210586    6.53273235103746   10.37293701047311
P         0.44861060697819    3.20763156799717    8.10952738525143
C         0.82095707191071    4.04566868414071    6.48028807456914
C         0.07209697473000    3.54190470210037    5.24765352860084
C         0.63783512210876    4.21088045791651    3.99476011411794
C         0.50046128381909    5.72682441795256    4.08986805593009
C         1.20298726425439    6.24515784581308    5.34084868193342
C         0.65318730727787    5.56140920197352    6.59003474535039
C        -1.41714318002751    3.33082751106928    8.26410074721206
C        -2.24796171835512    2.29404912509024    7.50449476529640
C        -3.72774934477794    2.67199707262716    7.57656093897028
C        -4.19869598363688    2.72563862406583    9.02585543301716
C        -3.34685699537005    3.70867781156820    9.82220765988580
C        -1.86872370343073    3.33960466410151    9.72694479837565
C         0.75194358585650    1.40607996936209    7.72457617999786
C         0.55264558540298    0.56705327792450    8.98676062797769
C         0.71824430490137   -0.91835672183371    8.67853107650745
C         2.10326488853398   -1.18659566788238    8.10033576152780
C         2.32452628135614   -0.33917024739660    6.85233930062788
C         2.15050137380519    1.14558930261285    7.16790962414801
H         4.42452806391436    6.78413469677019   10.91810602306846
H         2.76486417952482    7.29551623119995   10.58118905971803
H         3.70610103020623    6.52821955992439    9.30351327651488
H         1.89433026371618    3.85076998054349    6.34292206325491
H        -0.98570019838110    3.79804217945845    5.32865309383630
H         0.16308402451162    2.45866762383698    5.14931845725504
H         1.69244408072129    3.94704670347449    3.88567443116246
H         0.10866863962546    3.84301952978183    3.11300541441729
H        -0.55855088666999    5.99245289231934    4.13170208422307
H         0.92713291721525    6.19592663649002    3.20135918083884
H         1.06854006963081    7.32547131860719    5.42341456422147
H         2.27457185320204    6.04673692583044    5.26354408316914
H         1.18620751225653    5.92652882480392    7.47263082689525
H        -0.40321635014069    5.81678509692429    6.70366189997841
H        -1.63489014146335    4.32603917365083    7.84957190554876
H        -2.11892619965236    1.31028422282704    7.95888276230638
H        -1.94699042175292    2.22750014579785    6.45937075207265
H        -3.87849619662162    3.64798399480529    7.10869037980498
H        -4.31777960230977    1.94076912830596    7.01969188943090
H        -5.24839527259994    3.02248719390427    9.06632233494984
H        -4.11552755763006    1.73108197245871    9.47037383647460
H        -3.65761285543950    3.70953352747879   10.86861625934254
H        -3.49290597004245    4.71826928793617    9.43057247833935
H        -1.27763566842349    4.05476202112881   10.30119468315170
H        -1.71422956731915    2.35427958947825   10.17206854338711
H         0.01278159607862    1.10394937615565    6.97357358433012
H         1.29553256796414    0.86639514834434    9.73065131415402
H        -0.43568958032750    0.74633248682980    9.41435472548947
H         0.57455882950381   -1.50103856722934    9.59056835799434
H        -0.04370428604671   -1.22991539533390    7.95885813015311
H         2.86056995827348   -0.93633911137567    8.84620841664978
H         2.20914661527827   -2.24547183352524    7.85649119499012
H         3.32749081897781   -0.51218944332883    6.45735487484782
H         1.60695866448573   -0.63309332957441    6.08149936132385
H         2.89564601838167    1.44309968471249    7.90790241047620
H         2.32203020584196    1.72402943734304    6.25852842114247

