63
CSD_code = RATSOV | q = 0 | S = 0 | Stoichiometry = C22H36CoO3P | MND = 5
Co       -6.52004158493320    2.59441496532005    5.66485236921253
C        -8.17630067539188    2.24485209390806    5.22530345709383
O        -9.26753333193320    2.09690202891970    4.90983153348122
C        -4.97250608290275    3.38796523079943    5.51164757133327
O        -3.99583970443944    3.97570670349059    5.39127213656731
C        -5.90709463737144    0.95226601365055    5.41375104737084
O        -5.49516321924613   -0.09394563638433    5.18599534050237
C        -7.07812406632088    4.46171596184266    4.91666793941763
P        -6.74199989966772    2.72960851690523    8.09500555588146
C        -5.06340548006094    2.97535090672344    8.88614110899607
C        -5.01630897713532    3.13836678650011   10.40475548701136
C        -3.59902019593745    3.52130521090763   10.83196404355853
C        -2.59923301962366    2.45340126115997   10.39966449410452
C        -2.67206470577384    2.23382162971372    8.89157254256944
C        -4.09389135436060    1.86537089068172    8.47589301730958
C        -7.38786128513771    1.19516715446160    8.96791746547829
C        -8.30926335740464    0.38424683144509    8.05408960950223
C        -8.63425515429171   -0.96769288844224    8.68396367641910
C        -9.28220513344858   -0.78307758727653   10.05214892757265
C        -8.37562016178757    0.04490932834751   10.95623999926985
C        -8.07583364734136    1.40153280063227   10.31850926668220
C        -7.75187626132856    4.12139308704873    8.82036600130997
C        -9.15707261847130    4.08158810069341    8.21851305293999
C       -10.02145063707569    5.20658190087987    8.77957537088385
C        -9.37779834716799    6.55877540043795    8.49391410477605
C        -7.97652023669982    6.60757662997037    9.09248682597186
C        -7.10979659671797    5.47917426644131    8.53737973913537
H        -6.45692770559487    5.28811709631428    5.26500027482101
H        -8.10364399300677    4.73422322085535    5.16870214010739
H        -7.01121911084613    4.45738551183555    3.82790345290686
H        -4.70442038038678    3.90633115572206    8.42514042505237
H        -5.71304303775681    3.90799022704457   10.74055486410220
H        -5.28281975900896    2.19579571764260   10.88597176664044
H        -3.56421719995484    3.64640255826455   11.91647769786282
H        -3.32873814518209    4.47711889714133   10.37686462358053
H        -2.82698795105540    1.51608388356131   10.91317974372264
H        -1.58890823850501    2.75255574322005   10.68484783279640
H        -2.36919118360973    3.14671222320913    8.37385082532515
H        -1.98375070709301    1.43923793867514    8.59673971914984
H        -4.37048469355461    0.92569963053271    8.95994006228182
H        -4.13492589779611    1.70875919256098    7.39505422605624
H        -6.48367115888289    0.59286636416983    9.13002556517832
H        -9.23635156486978    0.93325213273116    7.87528226145868
H        -7.82469822934161    0.22672017074264    7.08761364862271
H        -9.30191983054988   -1.52776765429244    8.02653940233943
H        -7.71300202747012   -1.54518211440392    8.79371027439822
H       -10.24046202506070   -0.27185905297084    9.93406047540187
H        -9.47656122026603   -1.75589202866536   10.50785293543958
H        -8.85365420231306    0.19622785004434   11.92658649800667
H        -7.44049467070186   -0.49461699618241   11.12558892206504
H        -9.01778371186697    1.93448664508738   10.18142766494716
H        -7.45104027455757    1.98474968312815   10.99510985325807
H        -7.82114430711272    3.97785900440315    9.90416506412745
H        -9.63120972431340    3.11866890169397    8.41874785004771
H        -9.08156133158899    4.19145351155415    7.13513190383572
H       -10.13371169880690    5.07819828488625    9.85954727568634
H       -11.01679764169529    5.16343936187388    8.33263560102158
H        -9.99030395184205    7.36123941375640    8.90987650908572
H        -9.31565375477317    6.70914015267706    7.41400607838262
H        -8.04433664031786    6.51208528563414   10.17961552646310
H        -7.50932675741378    7.56940279281261    8.87126907082710
H        -6.11853916099302    5.53720177632513    8.99044339666250
H        -6.99731773986287    5.60403592941730    7.45961488410866

