72
CSD_code = RATWEO | q = 1 | S = 0 | Stoichiometry = C32H36IrNOP(1+) | MND = 6
C         7.29604862780993   21.90463864854241    1.47345231836000
C         6.33510326785094   21.45278424071469    2.39183650060817
C         5.23148459037906   22.25616046140376    2.68519567914284
H         4.49902292650304   21.90104340833021    3.39277682116792
C         5.07243873642210   23.48864825287570    2.08105128168137
H         4.20886017724087   24.09267026611069    2.31023200920192
C         6.03248949057293   23.94718581767734    1.19445147045007
H         5.92812080664568   24.91652984275269    0.73193123215704
C         7.13395967214247   23.16129685156019    0.89994103720847
H         7.88090188619477   23.53164076174459    0.21312815890896
C         9.42245109602130   21.65001348192808   -0.41950967384429
C         8.59313617722757   21.78725289561578   -1.53369739440153
H         7.55179406979811   21.50079751529499   -1.46012710048700
C         9.09204727666508   22.30809149102258   -2.71200094408571
H         8.44405379662313   22.42123730329691   -3.56776061331231
C        10.42505785535993   22.68213806940246   -2.79452240495778
H        10.81449506628436   23.08751128189645   -3.71531375690229
C        11.25537415036799   22.53501347437069   -1.69632180156346
H        12.29296062327188   22.82486829086288   -1.76007072492163
C        10.76065024228024   22.01556523223120   -0.51195935335872
H        11.41230910611675   21.90273076343486    0.34263725097515
C         9.93829629902574   21.33386407828830    2.36445599984662
C        10.91693918764726   20.40174257532852    2.70044191198446
H        10.91473353364388   19.43668318170132    2.21048276169586
C        11.87393511917656   20.71011854188208    3.64935882273268
H        12.63555484118880   19.98841444657149    3.90332734590453
C        11.85195353024245   21.94692635649197    4.27474308995061
H        12.59562653827234   22.18867226689427    5.01816958984319
C        10.87511285028231   22.87402523277403    3.94803097394240
H        10.85881163463755   23.83611973418460    4.43684600486476
C         9.91928210168101   22.57435796758223    2.99310292156353
H         9.16098206554221   23.30115001473705    2.73788478697900
C         6.46731914773681   20.20644921597777    3.14413254902526
C         6.01451241817697   18.90609704154934    4.90086331371322
H         5.06380113658460   18.36413025975840    4.89430983241846
H         6.33254325194624   19.05422597019901    5.93221025966801
C         7.07889786525796   18.24521444086865    4.00797630874536
H         6.74710767014035   17.25503423579738    3.68499385812909
C         8.47880582195975   18.10858346822611    4.64526913307610
H         9.16972182889986   17.90426286593157    3.81824222224746
C         8.93898028573603   19.39072373326837    5.33560669564131
H        10.00069974207711   19.32547076411203    5.55706331682585
H         8.41575445085775   19.54850360542507    6.27533140642732
H         8.78515895942937   20.26029164175563    4.69914747273918
C         8.50446340656090   16.93051664226234    5.61443160704047
H         8.25928219614991   15.99936207050356    5.10867770919129
H         7.79139109131753   17.07758305239282    6.42217339881157
H         9.49468319909655   16.83087871964939    6.04996916037732
C         9.68716862528059   18.06211900318848   -0.31047769617466
H        10.47075022239172   18.82167397100289   -0.35694822211600
C         8.51676652177371   18.32386270510884   -1.03607326542259
H         8.47370886884202   19.27732159928840   -1.55828763873244
C         7.65001654878311   17.24898777793872   -1.65572438689018
H         8.27418277663718   16.40175733486376   -1.93717954666640
H         7.20536352840674   17.63783543424845   -2.57194641285427
C         6.51709126056876   16.80357959259344   -0.71300225327318
H         5.64424137729500   17.43625028022379   -0.88230058690110
H         6.21893114480062   15.77670067137520   -0.94444754745574
C         6.88183784432095   16.89297659438351    0.74753908634584
H         6.01590589646601   16.98740595472195    1.40042244048822
C         8.06819229804013   16.43831869151051    1.29512191693404
H         8.08588448610027   16.21908287519451    2.35814226699932
C         9.14129256114921   15.71879571869567    0.51030197080227
H         9.61652993980296   14.98131586869758    1.15805432412748
H         8.67989662843664   15.17414120065383   -0.31219849550258
C        10.22135391071272   16.68136889363042   -0.01543096609908
H        11.01298523617204   16.77335416518908    0.73045471557959
H        10.68131923009352   16.27376052511820   -0.92008489253613
O         5.80828593513196   20.18105064775187    4.30216431537378
N         7.14136687127184   19.14515451962615    2.85505419319598
Ir        8.15377169220688   18.63574906606187    1.05745860511901
P         8.74234678023599   20.86351643377084    1.07469563022735

