43
CSD_code = RATXOB | q = 0 | S = 0 | Stoichiometry = C13H22N2NiO5 | MND = 6
C         2.53449909620213   19.69230470389792    4.88880425246676
C         2.08860667144187   19.14423845356185    6.12218089157226
H         1.32312142886041   19.68829678788615    6.65398896549234
C         2.61499018296217   17.98621976230816    6.62240672215366
H         2.25882764133098   17.60141270627247    7.56752989452712
C         3.61245853070502   17.28892179400075    5.92941604117817
H         4.01722982675791   16.37647211877909    6.33950132986486
C         4.06602308959479   17.77942242060929    4.73512915520679
H         4.83830301436811   17.25415569286109    4.18943161215346
C         3.55184118265368   18.96994174781450    4.19018898038436
C         4.04103592155189   19.44583235264504    2.94754124282199
H         4.79651590852408   18.81960397993663    2.46469172427077
C         4.30894067550269   20.88027931658360    1.09860494743786
H         4.57293186213487   19.98480209749834    0.52016449707307
H         5.23713598335520   21.42605074255809    1.31031857722104
C         3.33882482914875   21.75200154979702    0.30837432085509
H         3.82866657694217   22.18821620743635   -0.57518487161200
H         2.50701936075636   21.12402799010891   -0.01956808009221
C         3.75187013060559   23.88701858189173    1.34896662427239
H         4.68883565068671   23.50864010274260    1.75102507919019
H         3.34570684026705   24.62289703240775    2.04116648464924
H         3.95435375275271   24.37981983904695    0.38723350051348
C         1.58326580561284   23.35266032188980    0.56047059344956
H         0.85015306483979   22.56283041890550    0.41641322464742
H         1.82166459128307   23.80918385315141   -0.40935172644399
H         1.15461707584384   24.10823058628608    1.21471281452410
C         1.13193884000585   23.89308451227269    4.47399434713770
C        -0.21055249557050   24.57200750687068    4.75665499487875
H        -0.83421389355856   24.57518587910670    3.86693337270564
H        -0.04111917741159   25.58500365792337    5.11034521806860
H        -0.71169667588965   24.00978275420616    5.54170232285575
Ni        2.46604424016175   21.79235272788915    2.95164113140487
N         3.67368488308052   20.52733062898199    2.35225821716166
N         2.78832912183793   22.79956810298343    1.17925444068925
O         1.99109327932382   20.76315930840562    4.45421580400320
O         1.12042200786222   23.09646942550082    3.48748130324026
O         2.10462953028704   24.16612069562079    5.17709159741120
O         0.38984227832734   20.76723315185130    1.99020115879020
H         0.01308597325110   21.53319038190529    2.44649341493677
H         0.35828890967636   20.04783250391099    2.62907543669534
O         4.17895135299486   22.74350576903239    4.35621830670738
H         3.44184074699698   23.20277376250749    4.84455749471595
H         4.75739238394244   23.45441807015325    4.07372464082090

