16
CSD_code = RATZOB | q = -1 | S = 0 | Stoichiometry = C4H4ClNO4ReS(1-) | MND = 5
Re       -3.90666326046915    3.52347132445366   11.67284258013320
Cl       -3.55380215623050    1.47478268436371   10.80820188537041
S        -2.06460348900297    4.42848858618569   10.61937944363813
O        -5.18711171221727    4.04678775215549   10.73669993117018
O        -3.91776101908516    2.54240377281646   13.46684242785484
O        -4.26958157612746    2.73777553183679   15.64870928922205
O        -2.44024836109692    6.86825504125830   13.64019526016087
N        -3.50913198757751    4.95626964043820   13.00176549768575
C        -4.08744474140524    3.21670194306265   14.55006828040334
C        -4.03349165065119    4.74499606066631   14.32835952831865
H        -5.05278771041523    5.14148080434365   14.41342101549158
H        -3.40283915770544    5.22582008081979   15.08271956210867
C        -2.69971019559597    6.00886532341003   12.80923179133807
C        -2.10259531608534    6.07002815436051   11.40890082980831
H        -1.08768369152099    6.46333340234025   11.44831283846325
H        -2.71814397481366    6.71733989748879   10.78264983883267

