53
CSD_code = RAVCOJ | q = 0 | S = 0 | Stoichiometry = C28H24Zr | MND = 12
C         0.60887537857984    5.83865100532812    7.97296044038797
H        -0.23940561957583    5.31949159550641    8.40348870755076
C         1.71012302650091    6.36072168399808    8.68587217664820
H         1.84863487695138    6.31793596859246    9.76192100685225
C         2.68636852368244    6.75988035803518    7.74259401902599
H         3.69716742009605    7.08070787347162    7.96511384261397
C         2.17758431552582    6.50064106932168    6.45197876135367
H         2.73107970563466    6.61105906451779    5.52752043780038
C         0.88647694396171    5.94245940006408    6.59457259145396
H         0.28195085663466    5.52276177771234    5.79772519137695
C         0.11205113223602    8.47236740472260    4.23457749225655
H         0.18499963601467    9.10688842419782    3.34631795453213
H        -0.95179878870587    8.37068605498547    4.48833437573382
H         0.47859713322074    7.47322037570430    3.97081676976785
C         0.86834697490326    9.05363434820299    5.41353241964552
C         1.93343804131454    9.89060647939294    5.29724259362941
C         2.71747169747578   10.20766129375399    4.09491454824865
C         2.83677986785667    9.29019734532263    3.05022647177161
H         2.32629089273787    8.34352658474449    3.10966958632532
C         3.64775507333449    9.53773848335837    1.95948926162532
H         3.71891934042493    8.80831599376273    1.16518311108117
C         4.38887809302897   10.70520122097803    1.90135575000892
H         5.03639883981595   10.90025428778728    1.05878716388564
C         4.31920433056300   11.60722642314448    2.94489184212148
H         4.94361248013667   12.48738824021691    2.91489566038821
C         3.48975159109760   11.38354130847237    4.04115006214966
C         3.41520496950626   12.33372374470777    5.14866199546202
C         3.77729793591287   13.66897580266731    4.98796092199084
H         4.09814253734903   14.02558973767254    4.02081461889368
C         3.70270715481300   14.56431652194711    6.03691354805814
H         3.99223239285874   15.59495023584849    5.89126717901584
C         3.22544398110955   14.13774246144018    7.26406443889011
H         3.13070804091328   14.83618643691369    8.08337217223566
C         2.84138682466897   12.82159204565514    7.43411839062828
H         2.40447945393266   12.52854774745123    8.37408854792921
C         2.94980711125658   11.88986703075535    6.40096914030374
C         2.44513684013329   10.51846256737370    6.55996492299539
C         2.31940563140327    9.79337763340750    7.70307252364938
C         2.93426579647566   10.18868940853666    9.03172488630875
H         3.82340017935738   10.81308921697079    8.90330468406896
H         3.23273914782431    9.28872613463620    9.58627516494941
H         2.22208484079757   10.73538655064901    9.66102823029088
C        -1.71801240452521    8.25175631740523    7.83619753715903
H        -2.40231096480765    7.56208301161878    7.35148305472306
C        -1.14345712705543    8.08400274534999    9.11500719820272
H        -1.31500620732870    7.24985587706455    9.78524497038240
C        -0.45714914942929    9.26932475272065    9.44904861656914
H        -0.01139357347729    9.48753167038280   10.41346597087107
C        -0.63271083003205   10.18718253535537    8.38818429927657
H        -0.32357591836686   11.22524929507779    8.37926407792806
C        -1.41046520914540    9.55933552246004    7.39174371020705
H        -1.81020674627030   10.04544326520055    6.50965471864933
Zr        0.74549352867985    8.30364766543613    7.45807224212748

