31
CSD_code = RAVFID | q = 0 | S = 0 | Stoichiometry = C8H18Cl2S2Zn | MND = 4
Zn        0.10630305062173    3.39392551191536    4.39628185691611
Cl        1.23744239008690    5.28084513934320    4.43895859627536
Cl       -1.59400644589909    2.63911714865528    3.22856437318271
S         2.05009020693608    1.55212356842921    4.74584824080711
S        -0.48735202875395    2.57053190404812    6.88192447243567
C         3.37015384240057    2.67857653386291    5.27377190001848
C        -1.67856812754231    1.26894200432685    6.46063604539336
C         1.55906421605841    0.69868226684321    6.31465219444090
C         1.02113835096923    1.63410075001632    7.39586674532169
C         0.76092026314684    0.89344126271676    8.71211299985892
C         0.11541406219122    1.75216642431550    9.80207376367424
C         0.95389014994923    2.96661398750838   10.18025655694165
C         2.73794260521835   -0.14381019490335    6.79203447916887
H         4.14540570617110    2.11232095952590    5.77838478363220
H         3.76162560460223    3.10966160398597    4.35768730781925
H         2.97392847641097    3.47448402659966    5.89530822624753
H        -2.61773808208434    1.78546846779504    6.28815110301337
H        -1.38694013234310    0.75609294690768    5.55022228154887
H        -1.77747647754548    0.58642895455024    7.29816966450572
H         0.76541221506303    0.03077769562117    5.96944482620361
H         1.74017412907221    2.43613412482249    7.57767089652922
H         0.12944957110715    0.02358169370346    8.51838330591191
H         1.71792745145432    0.53236094163152    9.09135435895793
H        -0.87081989236405    2.08562518535275    9.47876894004547
H        -0.01882308435295    1.12012310760405   10.68245225969832
H         1.97235411630082    2.67204740001211   10.42528179792312
H         0.98050601371316    3.68801406949254    9.36796023673799
H         0.52353089187737    3.45871249773544   11.04826323031735
H         2.40195119336989   -0.92440714556620    7.46893236853185
H         3.21011265144100   -0.62059127456563    5.93665272976569
H         3.47648711254368    0.46800843770283    7.30402945813168

