92
CSD_code = RAVGAW | q = 0 | S = 0 | Stoichiometry = C38H40B9Br2P2Rh | MND = 8
Rh        0.48321261025674    4.12600947538749   10.82529060206326
Br       -2.16632695307480    1.26593800588122    7.45437148595988
Br       -3.03571878708666    5.13192934270987    7.17878415078223
P         1.51497790899810    4.02462495128811   12.96020240007481
P         2.30961755364161    3.45212571152823    9.56867004012372
C        -1.39101502930990    2.93940584871892   11.55001931230293
C        -1.65980218230436    4.47788305033762   11.44186374520401
B        -0.80075814054470    2.30287431680959   10.17337689200334
B        -2.50817879959920    2.00138568812385   10.61895853777349
B        -3.05064795508773    3.40769903596627   11.49118911552893
B        -1.35753873561515    5.13277433959876    9.93695093087766
B        -0.73700721736285    3.72978487438906    9.00164267483032
B        -2.06570780528926    2.50686625464788    8.98321965045162
B        -3.51879009998211    3.19752983235589    9.78847217444256
B        -3.03978850374377    4.79018045974579   10.43307585586869
B        -2.45036620701821    4.27557216651884    8.85112230410948
C         2.59786709790513    2.58037177055781   13.25602982993867
C         2.07236697041487    1.33122476633487   12.92862130793368
C         2.82349343536779    0.18243808536614   13.09562298522435
C         4.12427342578931    0.27027325941665   13.56381837177477
C         4.66533977214882    1.51025813126809   13.85661784807755
C         3.91002287162916    2.65975443820021   13.70581206866507
C         0.27483468647459    3.84556020827134   14.30719001768812
C        -0.00953998383139    2.66756748988746   14.98682567968047
C        -1.01775298889036    2.63703156640708   15.93620735056122
C        -1.75342424043289    3.77573538053360   16.21486313313124
C        -1.46784442754007    4.95868052667331   15.55104367468027
C        -0.46182093940827    4.99229619942781   14.60519258924353
C         2.42338255763009    5.38905783396542   13.78587528706786
C         2.59724576521971    6.61667648574200   13.16328276338819
C         3.23961770042602    7.65289194764739   13.81947109725843
C         3.70463068520844    7.47256428615559   15.11023162582652
C         3.50586084096750    6.25975900425934   15.75173005634594
C         2.86196297008996    5.22649801732784   15.09869829557297
C         3.94785236535669    3.42438420776965   10.39441611893551
C         4.31508922200192    4.61396601955629   11.01665997417968
C         5.54554208039462    4.74423747649181   11.62944404028256
C         6.43261201356577    3.67944935393209   11.62415008561383
C         6.08288745697018    2.49902441267963   10.99238414652330
C         4.85031799454874    2.36934604690112   10.37442412497549
C         2.80946123914467    4.54608413645972    8.18657314607486
C         2.10276752072084    5.69497981544051    7.86276600741801
C         2.51230910894606    6.49117758566339    6.80627007389443
C         3.63408138165269    6.14840543120268    6.07187144721442
C         4.35022715801661    5.00664063553868    6.39706760805149
C         3.94221132542418    4.20898050067333    7.44856977884278
C         2.21906285836828    1.83982819952019    8.72057116761323
C         1.89437031728229    1.74980802293359    7.37094876269056
C         1.69327098185739    0.51396548100459    6.78290072760834
C         1.81581378850713   -0.64358569979784    7.53224842553085
C         2.13514208707308   -0.56281939537191    8.87798026432862
C         2.32057538811742    0.67119401703499    9.47236923314149
H        -1.13921966986603    2.55994467950114   12.53940942346819
H        -1.62768949964520    5.05052694588032   12.36702820543130
H        -0.09775969817309    1.35237702586892   10.18343452830743
H        -2.79383910632872    0.92079869476863   10.98144643571986
H        -3.64685969517170    3.36800255930336   12.50290479746597
H        -1.13999170503210    6.28612683521497    9.79887646793210
H        -0.08732950863443    3.76932776718553    8.01168225979279
H        -4.62034254551806    2.96091553110058    9.45280684261321
H        -3.72808135997782    5.71288219478225   10.66714109856111
H         1.06969898465481    1.26239587352640   12.52535706129018
H         2.39776225223939   -0.78015493725940   12.85119399291861
H         4.71559695730191   -0.62415304807399   13.68948940918289
H         5.68459448579278    1.58646999669771   14.20498415093174
H         4.35187732186205    3.61899409662705   13.92761251121948
H         0.55916819292328    1.77078240865793   14.78641976643790
H        -1.22907477738756    1.71535143608167   16.45824243731971
H        -2.54359715380779    3.74407019404894   16.94949851263063
H        -2.03189221854730    5.85335900192155   15.76990872926831
H        -0.22637266346265    5.91813273005667   14.09390817359416
H         2.21113421323752    6.76595932732807   12.16405683511854
H         3.37162223888910    8.60297061675026   13.32326329437880
H         4.20874027458061    8.27819776591637   15.62280157566170
H         3.84815488639674    6.12203440205106   16.76691555073677
H         2.68947200977793    4.28925091414187   15.61052218733318
H         3.62548196270455    5.44474167103277   10.99384271368162
H         5.81378979950625    5.67504176808067   12.10817602834632
H         7.39623983757566    3.77346033573361   12.10249233234298
H         6.77705089086299    1.67156851764108   10.97197292497921
H         4.60590772809475    1.44698576144653    9.86957443109157
H         1.22486839284102    5.95888242553812    8.43399403295097
H         1.94918211271014    7.37690787640300    6.55374363346691
H         3.95108952111543    6.76714782711654    5.24572109839739
H         5.22675988920836    4.73632007952216    5.82674174641391
H         4.49773145468078    3.31508090313835    7.69792214074137
H         1.78804211120865    2.64663315765391    6.77887186766935
H         1.42199091488920    0.45658339740295    5.74040555528115
H         1.64865949660952   -1.60549124972414    7.07262607345780
H         2.22179269589664   -1.46261896290560    9.47006220963981
H         2.53264777707324    0.73847326455597   10.53053579545747
H         1.08592105492486    5.50663121621401   10.73435418139810

