55
CSD_code = RAVHAX | q = 0 | S = 0 | Stoichiometry = C15H30N3S6V | MND = 6
V         2.94098483207015    0.14519114254682    2.24018699069846
S         4.29714295147260    0.07406680912680    0.26303001828662
S         4.65554946362466   -1.31717664791658    2.75315344129760
S         1.40920492736433   -1.49411906181986    1.60816640131451
S         1.67422830172035   -0.22489554436081    4.16573363754477
S         1.69990083079256    1.95127495955142    1.48942886095340
S         4.13079414723781    2.07173159205562    3.02495645145519
N         6.32163282965912   -1.58945003930917    0.69623270007204
N        -0.22637639545749   -2.01248141352841    3.64296841741675
N         2.88685844210881    4.23998117578756    2.13636183479128
C         5.21494538076476   -1.01463698949659    1.17061631599633
C         7.04765854253030   -2.54905942515565    1.50271224677839
C         6.42167567239960   -3.94099476587598    1.46389807569073
C         6.74887381622279   -1.32168913846418   -0.66191783698817
C         6.01348592964951   -2.17922679914500   -1.68835868239415
C         0.82297878542523   -1.32986317832516    3.19609633594039
C        -0.69736457071859   -1.84326988456456    5.00234158033826
C         0.03399817672496   -2.77865597180362    5.96091167139061
C        -0.93454782285758   -2.93454321012660    2.77896984566140
C        -2.01878550112392   -2.21906246689884    1.97808657574913
C         2.90924207238326    2.91008788128501    2.21432691059953
C         3.93228626748872    5.03230571032926    2.74996944666144
C         3.61268889461071    5.33488756386613    4.21107843802670
C         1.83554303514050    4.92708990239417    1.41576991300745
C         2.17325373363666    5.05470158274563   -0.06719459412478
H         7.05036907838711   -2.18692898866892    2.53572567895362
H         8.07731092841678   -2.58465761136213    1.14032932637305
H         6.95682795846900   -4.60026253978810    2.14176744263276
H         6.46273440014048   -4.36135868879214    0.46255345321687
H         5.38259995780020   -3.88688170182042    1.78019495930360
H         7.82533632608134   -1.49772211394888   -0.71867461446429
H         6.55153258874153   -0.26574036506502   -0.87132650689152
H         6.32380996984854   -1.89459176970440   -2.68990084736517
H         4.94144057640225   -2.02246657158400   -1.59937872230456
H         6.22869239121837   -3.23453885751852   -1.54336878038178
H        -1.77132949541854   -2.04114818138833    5.01547228277149
H        -0.52400371401000   -0.80571494191810    5.30058523898931
H        -0.33892605733631   -2.63879618437565    6.97143896339889
H         1.09850207353775   -2.55846899215915    5.94826182117148
H        -0.11173778852830   -3.81745518041601    5.67288889511158
H        -1.36996865927623   -3.71724416238588    3.40396156700967
H        -0.21301992026438   -3.38775978540117    2.09397953622439
H        -2.53966899642015   -2.92934758341875    1.34244580034776
H        -1.56762027822622   -1.45446187049981    1.35043159865410
H        -2.73974521354955   -1.74599956827235    2.64115669980029
H         4.03524937009423    5.95737557111353    2.17868359159400
H         4.86918949032361    4.47144313614875    2.68951951950559
H         4.40507709119088    5.93663552894869    4.64674783173748
H         3.53314379194196    4.40547829366826    4.76909408954129
H         2.67267176280397    5.87569515237763    4.29588014423676
H         1.70458961031869    5.91280765596597    1.86763161067327
H         0.90836531064287    4.35932126165532    1.53223509532366
H         1.37213963362901    5.57195316857863   -0.58734613073214
H         2.29118976607514    4.06550859737081   -0.50301806580960
H         3.09869530415448    5.60933350976189   -0.20539647478612

