96
CSD_code = RAVROY | q = 1 | S = 0 | Stoichiometry = C51H36IrN8(1+) | MND = 6
Ir       10.99972071241745   11.30030265723583    5.66246181956260
N        12.61523345981299   11.48937424315938    6.91601288532918
N        11.00299984391432    9.12737518683205    6.25954265289255
C        13.77588514580932   11.01832458080353    4.90379207459731
N         9.57823944658338   11.20799128012523    4.22631132044071
C         7.80368202782925   15.00141356549717    6.21123047125852
H         7.34265906825808   15.24866633726388    5.26883137519783
C        10.28626538464420    8.87552742820109    7.36036049646293
C         7.97342226799233   17.42819511278655    6.72805591656288
N         8.89917695753664   11.99540210193524    8.03014795358900
C        13.69818740337730   11.85301265414648    9.01638242297250
H        13.60547688439562   12.09912050278652   10.06144336119507
C         9.62951184647071   11.18519703484206    7.25232951836365
N         9.60852748732851    9.97207649223371    7.88375167263256
C        14.90764311693097   10.71704199090400    4.14252103051720
H        15.87775418259167   10.62613752373146    4.60690267761587
C        12.50069239310294   11.12058941940867    4.30717964221737
C        13.81852498837145   11.26772517025742    6.33541127526923
N         7.54241330916612   20.11290487295894    6.09236524626192
C         9.29653212030445   12.37116735010677    3.58547013111376
C         8.63661243912099   13.35324525482953    7.73158952500610
C        12.57668359951747   11.78499257633644    8.21633763604858
H        11.60332216727360   11.99094632649976    8.63999461296299
C         6.89729425160018   17.81895088189012    5.93665735814272
H         6.16725205390457   17.11836478657970    5.56731212233768
C        14.93797413161104   11.60354880745233    8.44024953525341
H        15.83902037783188   11.64518195042439    9.03196927560694
C         8.18762656635399   16.01858469461924    7.08276988737590
C         6.73017037462762   19.16944855655252    5.63131552209595
C        11.67962207912903    8.13633537692877    5.69257944033873
H        12.23955662946938    8.39855170966615    4.80583674023969
C         8.02646117148206   13.67810653395908    6.52883461674072
H         7.72634806274714   12.89109602468698    5.85445969232402
C        12.42779014985371   10.93034535094305    2.93096464435715
H        11.47883073606591   11.01445636893910    2.41836135288652
C        13.55228783240499   10.64011538999328    2.17507763150467
H        13.46051588674191   10.50131644942257    1.10773504422926
C         8.83489463346087   18.42397169140431    7.17923577569035
H         9.70914847856497   18.20694317925609    7.76988612240482
C        11.67616185838668    6.84678451887217    6.19181085930259
H        12.23891742643608    6.07131928337768    5.69993559649528
C         8.43211125458208   11.32521523050784    9.13614093448479
H         7.82397601508042   11.80162298794357    9.87711308724771
C         9.98074705915735   13.53273378591755    4.12597527894460
C         8.98276327253723   10.08687162819296    3.81625214795442
H         9.23599322413112    9.17850850609234    4.34711768665225
C        14.79327993626490   10.52420570915441    2.78195668911995
H        15.66654963876256   10.28993364708285    2.19265305838836
C        10.22298418940165    7.60761213615126    7.93085738769375
H         9.63399326599114    7.42428952635681    8.81388411920211
C         5.61195046638837   19.59695726000505    4.77770637038654
N        10.46586738324392   20.45199178732090    8.12634764237660
C         8.39670067516683   12.39303105103902    2.51786491257821
H         8.18797006178076   13.32343295297416    2.01674267480525
C         8.86922388050592   10.05044946801823    9.04514276783716
H         8.71404876369371    9.22640223886181    9.70821441795587
C        14.99180199019543   11.31503703840575    7.09385583337773
H        15.94163000013054   11.13517686114177    6.61896975654083
C         9.42430381750279   20.82632535839175    7.38382923609898
C        10.93166796470309    6.58089363374358    7.33320070670418
H        10.90045753091220    5.58745132080582    7.75211928605127
N         4.88067414963090   18.63173120713662    4.22106630687229
C         8.56912812384621   19.75400132053953    6.85391913755408
C         8.99514875285777   14.34972998533136    8.62751229569828
H         9.45646229400317   14.09188352988783    9.56969274284967
C         8.77226993867929   15.67232840109638    8.29995861129640
H         9.04492962250023   16.44403749813571    9.00244491350599
C        11.02078413900206   22.74739345002660    8.46461468215190
H        11.67691216507491   23.47279963274579    8.91924735659362
C         7.78854140015431   11.22752755696498    2.10072418551385
H         7.09707751086588   11.23179324224274    1.27287261665889
C         9.12876791562522   22.16651119604003    7.13540369586193
H         8.27537011199434   22.41209123935172    6.52542394151883
C        11.23596959761562   21.38814584830917    8.64482156838088
H        12.06643647422698   21.02903764588619    9.23974094499030
C         3.86720688028040   18.97676799538257    3.45140775681348
H         3.30792778889070   18.15383797120430    3.02416937516225
C         5.34349002455788   20.94971930652637    4.57116428734644
H         5.96866761627230   21.68822672338386    5.04476786751107
C         4.27640491931691   21.29972276487790    3.76367212796470
H         4.03927357124154   22.33851345845503    3.58561970796615
C         8.08680191447681   10.04487923998373    2.76800488195315
H         7.63635503871973    9.11001814084811    2.47747372441992
C         3.51605946353174   20.29331134298574    3.18778132800205
H         2.67468669034686   20.52093836209109    2.55252943093250
C         9.94093432296718   23.13994100088407    7.68837968922821
H         9.73590288659236   24.18737085240670    7.52089263720779
C        11.25515598923487   15.63740523988509    5.38843682057883
H        11.74373385545858   16.45964209062414    5.88968099402265
C        10.86851037265659   13.26046891665032    5.18891801750830
C        11.49442696004628   14.33773882302763    5.80352043836071
H        12.17992600764794   14.17488622184390    6.62345830974646
C         9.76460448800581   14.84264792828187    3.69475802036603
H         9.09464869808927   15.04716892771843    2.87372836405272
C        10.39771122389480   15.89061356428285    4.32852439479424
H        10.22223974817388   16.90537602900960    4.00590789679288

