35
CSD_code = RAVREM | q = 0 | S = 0 | Stoichiometry = C8H22Cl2N2Pd | MND = 4
Pd        3.50411632832802    6.33884384496097    4.97436583049789
Cl        2.56007038269376    8.42578824542793    4.74927978067118
Cl        4.44955096603433    4.25299541708104    5.19988519357319
N         1.97427547120152    5.61374154089865    6.18025308451176
C         2.01009852491037    6.02494391782884    7.60387340001142
C         1.42882831586274    4.89767956528361    8.46330293406186
H         0.40924777290990    4.66679013208889    8.15891366342855
H         1.41151230658377    5.19120469778595    9.50922836582264
H         2.03337806587157    3.99720934080426    8.37146564455574
C         1.18702202307500    7.30184291039964    7.76354309745265
H         1.53746340095604    8.05907906007939    7.06456539777909
H         1.28370480656025    7.69078560027715    8.77316086521513
H         0.13292619192173    7.11021175189853    7.56950435568703
C         3.47318763348810    6.28245875929424    7.98711780521675
H         4.07511761913522    5.39246390402105    7.79225103163294
H         3.55000783549918    6.52839151612505    9.04353705967991
H         3.86854738059381    7.12870174230839    7.40126024999925
N         5.03296860813983    7.06232061278824    3.76635376545720
C         4.99084399979691    6.65180410527037    2.34256098389557
C         5.56389026887050    7.78143400284423    1.48076973901383
H         4.95761275226602    8.68021678580301    1.57763901713508
H         5.57501057832183    7.48922807965024    0.43439533179780
H         6.58485149669740    8.01456104735088    1.77869475622455
C         3.52666460188155    6.38991237988346    1.96599595730697
H         3.13745375019814    5.54032193461261    2.55098343233483
H         3.44555388772945    6.14690860188479    0.90923476806601
H         2.92241356917674    7.27718244949696    2.16632204391170
C         5.81675026356920    5.37732637682072    2.17796764283260
H         6.87151079541825    5.57204912216416    2.36509730035582
H         5.71465141880970    4.98776813338677    1.16912365010835
H         5.47286636647785    4.61930592938738    2.87935395761709
H         2.16222546970511    4.60626426227678    6.11847123728071
H         1.04961160257526    5.80189385411779    5.78513167564629
H         5.95825191938004    6.87086045567809    4.15832870767127
H         4.84861362560051    8.07030991959146    3.82946827278561

