89
CSD_code = RAVSAL | q = 0 | S = 0 | Stoichiometry = C47H30F4IrN7 | MND = 6
Ir        8.64211487491060    6.94044345610785   13.06372398821274
F         7.29308879755887   10.08705768425401   17.10514854301460
F         3.78005696559635    9.09570275381335   14.19510791352656
N         9.82147188600477    7.69443133116590   14.66434627713790
N         7.78818147221901    8.42372879620401   10.71017105966344
N        10.18866895795725    5.81722360079635   12.18200064934425
N         9.08905288055058    9.84493222605817   11.65854269267580
C         7.37867758503944    6.27601025134552   11.60267833832741
F        10.24920052761249    1.97361120577385   14.06445011407391
F         6.62172231174290    3.36670651297501   16.64506650800597
N         3.96776130226560    0.91695839391322   10.46528538752634
C         7.12153760973341    7.19546177717744   10.56828166749495
C         8.63540548234006    8.58038423649303   11.75795938329098
C         6.74450479891275    5.04717193715577   11.49783407852037
H         6.93257629698190    4.29521689013715   12.24843345292948
C         7.23645239733540    7.95306013813773   14.10376436272976
C         5.64529580134795    5.68182910875827    9.45480358950998
H         4.95927325234096    5.46781222245568    8.64960233647542
N         4.09638888225744    1.45930506010509    6.93120978752575
C         6.27574844876163    6.91084079195437    9.50733948370070
H         6.09611190820287    7.63896803017839    8.72974119786652
C         8.48214323204057    5.20738399632312   14.11269323867619
C         9.11603499830890    8.33609697888271   15.62274854807923
C         7.71585091167987    9.56954681907770    9.97021038276180
H         7.10575537676924    9.67386746579297    9.09768469613649
N         4.51451954091448    1.37497452720211   13.96717821012420
C         7.72120416345454    8.59118382001457   15.27918236334323
C         5.20608814414209    3.42954866529444   10.43874373923956
C         5.89216308558720    8.13832196098377   13.77199303950539
H         5.47130217463967    7.65694967458268   12.90252633873803
C        10.36425281575397    4.57662072708597   12.68996130945235
C         5.87248986918767    4.73718628183940   10.45240683532357
C         4.89780167510652    2.78245614496093   11.63308197571233
H         5.10030701129371    3.22676394037887   12.59320255308591
C         9.42247451044686    4.20914221271890   13.74272005653979
C         4.29779290702120    1.52650800390624   11.59912666585219
C         8.53445246516143   10.46808251397967   10.56900268004543
H         8.76398199057960   11.48146904915553   10.31089523391231
C         7.54967080390875    4.89095595853030   15.10006563508887
H         6.81223982190015    5.61619217563595   15.40768584643421
C         9.71995103465896    8.67278979103880   16.83725788946228
H         9.15539463543089    9.15512224799103   17.61505722991677
C         6.85713517480383    9.40345273241723   16.01685866361967
C        11.10260442642668    7.41468319944079   14.88101645276164
H        11.62836977400623    6.91239832105878   14.07914409572554
C         4.86567045087988    2.77694218792281    9.25629425015284
H         5.08463569533434    3.19457902572247    8.28739911464236
C         4.23986490001336    1.53296315301869    9.31848675410212
C        10.99331893770936    6.24395837644300   11.21458588612499
H        10.80597344457280    7.24301238166409   10.84324705919753
C         4.01851552794125    0.82451083335736   12.86043282794922
C        11.04935723496988    8.36964873442478   17.05379821024907
H        11.52035344991941    8.62156994480519   17.99174517401043
C         5.07299525637811    8.93020383521868   14.54782392555278
C         9.99317114798136   10.48005103658171   12.57415873917546
H        10.81828193212819   10.94680382952671   12.03279395695632
H        10.38576508085954    9.73055262104891   13.25747130919966
H         9.47472814201791   11.24714595982830   13.15379152972517
C         3.85457032431219    0.83538752645908    8.08287224158719
C         5.53582783535402    9.59022244130517   15.67356539296470
H         4.89476147847601   10.22516581718289   16.26182987514454
C        11.76567014291867    7.73416055011095   16.04882955562669
H        12.80735372557112    7.48392539958052   16.17086164704950
C         9.37256853027693    2.96352768985271   14.37391076316209
C         3.15897082572113   -0.38974183661738    5.75111136908852
H         2.90013248221149   -0.83520804919178    4.80296172397863
C         3.27994150195032   -0.35846244771775   12.88550536595925
H         2.89937944255909   -0.76101117449153   11.96113301593947
C         3.75743592801949    0.86034427255152    5.80674355506860
H         3.97755596433155    1.41395054031477    4.90209749990534
C         2.90606344953691   -1.04411094409863    6.94787794093900
H         2.44189331355216   -2.02042031508583    6.95288086288378
C         3.25799166654450   -0.42592953200936    8.13255034426788
H         3.08805533574128   -0.88550980693562    9.09207074308257
C         3.05779800987593   -0.97591490299997   14.10289561568369
H         2.48823925838241   -1.89328446088380   14.15794722686998
C         4.29841817931400    0.78037282326392   15.12267574042364
H         4.72532671210288    1.27584595945832   15.98531198981787
C         8.44177149600584    2.65854792329857   15.34310053299251
H         8.42354449840223    1.68485323008038   15.80336260902333
C        11.38984563364868    3.75901366759992   12.20332359973949
H        11.54160176851238    2.77252713866500   12.60250844496650
C         7.53564204206412    3.64486168757538   15.69038045645930
C        12.22106270766487    4.21390348423921   11.19985698591817
H        13.01266784025822    3.58482919662653   10.82155654395894
C        12.02196752943506    5.48845565769175   10.68808237969084
H        12.64551767462034    5.88485463016287    9.90275206097930
C         3.57688541291463   -0.39861784439231   15.25206396060168
H         3.42663510613494   -0.84873385435900   16.22121672807900

