39
CSD_code = RAVSEN | q = 0 | S = 0 | Stoichiometry = C16H17N3NiOS | MND = 4
Ni        5.96907564918934    1.89229364298531    3.23819494972534
S         2.52911014117829   -0.65422271187344    1.96395161062184
O         5.80492021852535    0.63196182265161    4.53792477367264
N         7.42460868805286    2.66960485190813    4.08564420642160
N         6.14247664955246    3.33576919767588    1.82776901701157
N         4.58271159421328    1.14631651627438    2.30865231147743
C         7.50330182465141    1.32098414166824    6.08610900688017
C         6.43001048818305    0.49570310500655    5.64570294780600
C         6.00700529744967   -0.58346392159988    6.48901951092971
H         5.19686144722826   -1.19335719500957    6.12034446822907
C         6.59801740142991   -0.81548827016767    7.68181009938177
H         6.26614775245143   -1.63445397173962    8.30443309727326
C         7.65941643091773    0.00109634980279    8.15951566320759
C         8.24339252986701   -0.25486198366222    9.40988661255299
H         7.87151722814011   -1.08558929788598    9.99247466403054
C         9.26087613216023    0.52918133568358    9.88827780976213
H         9.70577152173169    0.32864510927390   10.85122962581298
C         9.71778290898152    1.59761205586034    9.11690922499550
H        10.51647948435339    2.22247965286601    9.48974947625312
C         9.16215620697410    1.86537269377356    7.88980042789940
H         9.54766644012926    2.70689062832698    7.33479805809410
C         8.12055282091606    1.08035551198414    7.36575976665089
C         7.94274524671978    2.35768663321808    5.23634669070979
H         8.79821528413162    2.94706470306546    5.56329156836205
C         8.05238554303593    3.73413946771893    3.31848751514763
H         8.50865193717348    4.48492838941498    3.97724490538536
H         8.84967508398187    3.31047683814883    2.69361028719643
C         6.97637711093921    4.37997021961583    2.44861851433500
H         7.42350777111565    5.02975251517253    1.68322557469658
H         6.33237628205043    4.98793028001093    3.09019235780541
C         4.89732814749887    3.94664192301730    1.34864239242378
H         5.11561323507077    4.75313209728760    0.63820217050728
H         4.33309709262272    4.35063839451162    2.18791613027478
H         4.28461017359587    3.19209062087392    0.85992936480937
C         6.83703141329397    2.74489735162584    0.67649966739236
H         6.20227670692790    1.98216720959667    0.22779060973743
H         7.76844748411829    2.27377388977182    0.98775338805801
H         7.05919301288118    3.51394125744275   -0.07433114720486
C         3.72340961856659    0.33233894570152    2.24712268167284

