61
CSD_code = RAVVUI | q = 0 | S = 0 | Stoichiometry = C24H26ClN3O4RuS2 | MND = 9
C        -2.51751588836803    6.06069514975490    3.45068250022335
C        -0.22545231971242    7.18445044408503    6.05635042591928
C        -4.08364969217347    5.29708501272583    1.71911950020366
C        -0.15033021667461    5.98362751428756    6.78855934177255
C         1.14450003004109    4.79159396366153    8.54867861030277
H         0.97839204099220    3.88707295430183    7.98349581485422
C        -3.96702472982438    6.63539881338646    1.85770517000584
H        -4.46521887762644    7.37614227415097    1.25403372841362
C         1.86626056938303    4.78278084698919    9.72751545740087
H         2.27695889750824    3.85472524828311   10.09656682554050
C        -4.91657140345656    4.52303761651575    0.76620428556339
H        -5.50136850687690    5.20274747281181    0.15233919036578
H        -5.58924814595522    3.85295391105963    1.29952808819166
H        -4.28595173132692    3.91727057960963    0.11730435972769
C         2.06781669101569    5.95741098190814   10.43885950651604
H         2.63679743289657    5.94537500918841   11.35609342684141
C         1.53083255388482    7.14688618310689    9.97176270783876
H         1.66388700771397    8.07927034668105   10.49762198918183
C         0.80410501148010    7.14504897501165    8.80026318468660
C         0.61011806088964    5.98397370514368    8.06088486008427
C        -0.99167766112715    7.30362973373334    4.87044611452147
C         1.61845270410149    8.81403794515438    5.92835588371956
H         1.45478509560719    9.06177041423642    4.87928537138496
H         2.38988288962469    8.03952046707943    6.00506059542632
H         1.93434833163049    9.69994150448328    6.47415796982539
C        -3.90736311205862    9.57859521152094    5.20954869575933
C        -4.84950988557668    9.31884736416022    4.19347329578805
H        -5.65950511398233    8.62151286935792    4.38840093395092
C        -4.83168333026441   10.02766803823338    2.96484161340409
H        -5.63635917344446    9.87834556705639    2.25455091444980
C        -3.83249160308182   10.99446791118200    2.71232913738654
C        -2.87088788453031   11.25165924763598    3.72994558716573
H        -2.13773738975786   12.03688507481948    3.58203914499899
C        -2.90804366485379   10.54865959393389    4.94433225565598
H        -2.18462823428526   10.77201483316226    5.72224665722795
C        -4.01544024098464    8.92714279037748    6.55314600542621
H        -4.64481526795681    9.54060190161402    7.20090252909516
H        -3.04397984384317    8.82954080439372    7.03787130864075
H        -4.47242189599605    7.94203550728707    6.47542730516517
C        -4.86889879297518   12.97969100007207    1.67804345273017
H        -5.87101627153746   12.57607990878265    1.80971604321498
H        -4.87279052374747   13.63738888234315    0.81281851793058
H        -4.61539906049735   13.56671535280716    2.55844222227363
C        -3.85628594752504   11.84711321744650    1.46634157574431
H        -2.86123974845586   12.28554656739253    1.33928750301131
C        -4.17786729915063   11.04813193723204    0.20391444518297
H        -3.49948480918057   10.20019771618459    0.12592045367103
H        -4.04186232102182   11.67982969190878   -0.66986728923432
H        -5.20616231774823   10.69351232742897    0.20525899732549
N        -1.61505767631501    6.14428880721474    4.44228793990704
H        -1.36881559541400    5.33477702286614    5.10677171976384
N        -3.10693252049033    7.06001927154798    2.83301721611978
N         0.36746708114614    8.39035339261104    6.51128027005192
O        -1.07115510494474    8.39039037915190    4.25015741969339
O        -0.68898894973349    4.90900069402190    6.40757185992915
O        -1.32881330431063    8.60532996873433    8.31142708221757
O         0.80956821913268    9.79073344317847    8.56135632881272
S         0.09592254287416    8.62913847400061    8.11993553008237
S        -3.04263131088018    4.50251378659609    2.88167463393568
Cl       -1.54460269456865    8.97586403251060    1.29582646602861
Ru       -2.79341509765973    9.03216034387134    3.26768731898170

