67
CSD_code = RAVWOD | q = 0 | S = 0 | Stoichiometry = C27H27N3O8RuS | MND = 9
C         1.90636401227716    2.63946486505146   15.53120908491514
C         1.60405223857819    3.10344857472316   16.81452133829391
H         1.90262654569212    4.10081445587074   17.09015641122024
C         3.75446084977338    5.11581166825103   13.49701017000307
C         4.62501245501554    6.17091888094115   13.51649843688140
C         0.92338961082171    2.28009319574523   17.68602819232759
H         0.66925822619146    2.62725760671102   18.67508386469684
C         5.79225162282774    7.93367265852653   12.19285599066244
H         5.66428982660899    8.60941431264333   13.02367996654188
C         0.56017372733282    1.00655242249573   17.26382449942402
H         0.01474344946720    0.33633698671754   17.90703402895734
C         6.42073367284176    8.34016017995604   11.02967946051957
H         6.79163514407854    9.35078904620972   10.95011991016565
C         0.90669769644912    0.60959469414587   15.98966714061379
H         0.62854123269854   -0.36776861520066   15.61071302404796
C         6.57688433108820    7.46392977520312    9.96500020618479
H         7.06238473197137    7.79271105733237    9.05920453558253
C         6.11352234332382    6.16051753354469   10.06875397384346
H         6.22232448267185    5.44948156303312    9.26518134704308
C         5.49511664394443    5.75900613808696   11.23196007953416
C         5.30842865266139    6.62994336934612   12.30277860634594
C         3.18880365746388    4.60542038596701   14.74771677811134
C         2.36094705417109    4.88473650005206   11.49398997078307
H         1.41179970792117    4.67619446917599   11.98834141511396
H         2.39858813744027    4.33073771092720   10.55960794267632
H         2.44468240115049    5.95706574136028   11.29064587710844
C         4.05144600566825   -0.26556273508516   14.13926227819772
C         3.20666720976609   -1.34956811850972   13.79765513352433
H         3.03264757578633   -2.14378713192747   14.51592030147979
C         2.66974571970175   -1.45068059160356   12.49425066344274
H         2.05754590167032   -2.31090011661119   12.24840258893191
C         2.98440129522343   -0.50222365475165   11.49338569910369
C         3.80914275893166    0.58841186453717   11.85820901155324
H         4.08643702625159    1.32727019297331   11.11229400566603
C         4.34946807352475    0.70520089722607   13.15380880849317
H         5.05045693127714    1.50688137423376   13.35918315056630
C         4.69168772074382   -0.19464813870566   15.49476071504214
H         5.62089698204442   -0.76655744820878   15.48526695950383
H         4.04322091263874   -0.61583635972500   16.26128192306672
H         4.93279238613505    0.83318469032549   15.75763636035055
C         2.54373183321255   -2.04899667319031    9.54488660019615
H         2.32322329571305   -2.05193981140643    8.48050798851963
H         1.82304102292373   -2.69838986826062   10.03585756900021
H         3.54213063644219   -2.45731063102441    9.69017132572580
C         2.45759897450983   -0.61855761902842   10.08189476104139
H         3.07098852219277    0.02871541809346    9.44452437795293
C         1.01456161147983   -0.10448458652075   10.04197980638067
H         0.61349219988266   -0.17417393928963    9.03370981482490
H         0.98134462573825    0.93809684989926   10.35591546894596
H         0.38192796765958   -0.68663322903658   10.71081620133472
C        -0.02867768934829    2.42726774869479   12.69403860515593
C        -0.75963601334634    1.10791161653689   13.11574202925114
N         2.55380045045912    3.41062922012460   14.59507333343927
H         2.46792182083469    3.08778994794357   13.62138152404586
N         1.57260841455773    1.39549229824843   15.13811942561472
N         3.47010111517340    4.40433877637512   12.30266830365780
O         3.34756013869595    5.17868678735758   15.82647745541817
O         4.90236656669741    6.85397109506601   14.62280511841671
H         4.39488243418661    6.44141286015569   15.37209599295890
O         5.75158590055424    3.42404081034531   12.40861626426551
O         4.60872634076244    3.44840362937315   10.24189219678845
O         1.24154454939324    2.26321959077532   12.49310002514341
O         0.04688136987400    0.11238824725770   13.28047069905925
O        -0.58870919592266    3.49711247953702   12.55753115157382
O        -1.96305965022168    1.05052557839753   13.24948266349671
S         4.88735192935154    4.10306705711163   11.48432725524516
Ru        2.06384187473251    0.56262644544323   13.30673419202612

