71
CSD_code = RAVYOC | q = 0 | S = 0 | Stoichiometry = C36H30Br2P2Pd | MND = 4
Pd        5.67744050605679    6.79893907096810    5.19135394919951
Br        7.09704728596379    8.57913010440017    4.32139970010270
Br        4.20602605096496    5.05949379759996    6.05955754256270
P         6.22483652864254    7.47732130272535    7.27888014406534
P         5.13963953631235    6.10867059982660    3.10497352108410
C         5.91320160817938    9.26434334708450    7.35174201711834
C         4.71532053423540    9.65172006850842    6.74982871128307
H         4.07071932147601    8.88553389389758    6.30573345136664
C         4.35620880648881   10.98366953161259    6.71038720742204
H         3.42923354893037   11.28439586030153    6.24435738181281
C         5.20160040717696   11.93639504488589    7.25953805859836
H         4.92958709269835   12.98074994869090    7.22182989160848
C         6.40012897243366   11.55561864161632    7.83813678632026
H         7.06349330604829   12.30362393459552    8.24673477608673
C         6.76272016407320   10.21983292355121    7.88755539919612
H         7.70951986789328    9.92724736932052    8.31732041050279
C         5.42504784679173    6.85367615484160    8.78802107942059
C         4.54700737940843    7.61634623325398    9.54753325023555
H         4.32712023626253    8.63684266018429    9.26452556569561
C         3.95524048996876    7.06556472237026   10.67079487915194
H         3.27461029869257    7.66108569114363   11.26175603306676
C         4.22793003801997    5.75766425666145   11.03302063202462
H         3.75826935779910    5.33152624624036   11.90709403110327
C         5.09627329821879    4.99181966005524   10.27078186525385
H         5.30137416199729    3.96824635209827   10.54595187593148
C         5.69204147432503    5.53574112109713    9.15087902158429
H         6.36042416614414    4.93998968917355    8.54176001083911
C         7.96910873337183    7.15105222294462    7.65836387134267
C         8.73582761823593    6.48896820660037    6.70479273128906
H         8.29110253233772    6.21634404563955    5.74412089517821
C        10.05778367375108    6.18052806727287    6.96910066825163
H        10.65282397995896    5.67065742300008    6.22603000184937
C        10.61456684563204    6.52763153676377    8.18857636775247
H        11.64812688002227    6.29262801248941    8.39539228209499
C         9.84652048374119    7.16525215887459    9.15112677243136
H        10.28093947578265    7.42021275114954   10.10677921648610
C         8.52296384311945    7.46946691111353    8.89513273702267
H         7.91088697566127    7.93970096961086    9.65332183276980
C         3.32813771649221    6.03000387794694    3.01414590240972
C         2.68780817237574    7.12837357366209    3.58921861884966
H         3.29427558732144    7.93114079560231    4.02117213924690
C         1.30960103690931    7.19238630639847    3.61914818507993
H         0.81323032500005    8.04177690881029    4.06530829101903
C         0.56492075226248    6.15007303819277    3.08716645718874
H        -0.51371990176240    6.19059987674897    3.11850104951514
C         1.19875507143109    5.05066498438897    2.53428889134484
H         0.61403616398809    4.23315637597363    2.13894917862868
C         2.58159261412336    4.98382980285277    2.49470197164166
H         3.07380868250389    4.11348176350153    2.08618507481630
C         5.59552872315573    6.99501130785263    1.58412651876935
C         6.94342390452274    7.00646551906569    1.23350512776828
H         7.66200261984665    6.49313074377520    1.86012414227745
C         7.35869454298539    7.67971989576592    0.10236100259858
H         8.40492268180144    7.69041150010497   -0.16370117055454
C         6.43306408522390    8.34845253607073   -0.68344751091192
H         6.75771793328609    8.87814181525233   -1.56676306513394
C         5.09376874337095    8.34501084877254   -0.33330360237966
H         4.37278880781343    8.87022970022333   -0.94280973834626
C         4.67088222472501    7.67432658175392    0.80096180055773
H         3.62434340566058    7.67813278156153    1.07410186044534
C         5.83592639942462    4.46773295440574    2.76379690983178
C         5.65202888872818    3.82976858979542    1.54037580500486
H         5.06636103344901    4.30864624205318    0.76691005093128
C         6.23459009115976    2.59654545190045    1.31708254778436
H         6.08446273331542    2.09498940816599    0.37215585163721
C         7.01602831712304    2.00596983911510    2.29862592276158
H         7.46829252599524    1.04220427689125    2.11743803130468
C         7.22850073136619    2.65297737472163    3.50440545740131
H         7.84984461110151    2.19911421661690    4.26213785878160
C         6.64166252314190    3.88352422735252    3.73619792589629
H         6.80700492528153    4.39877635239085    4.68694794473768

