54
CSD_code = RAVYIX | q = 1 | S = 0 | Stoichiometry = C15H32FeN5S(1+) | MND = 5
Fe        8.81025577239014    8.64886199764342    3.11807804391254
N         7.21773344473900    8.75866023673500    4.17435162405024
N         7.98353669926510    7.60018189004864    1.46916012038420
N         9.28972905672074    6.87850986443325    4.18551561327507
N        10.11557391373187    9.64219414063261    4.41512750977981
N         8.11616404347114   10.45692710762301    2.16399712260950
S         6.27706204150749    8.86636841553820    6.76969985109779
C         6.84051352849879    8.81439938688673    5.29026385103536
C         6.64044497705156    7.04862896373524    1.64305402284340
H         6.68981808132486    6.07585319237625    2.11835278359923
H         6.12584957957813    6.93010637155428    0.68474986827711
H         6.06884232046536    7.70484704850325    2.29332380122064
C         8.93444098914626    6.57241860558661    1.01918011620465
H         9.85007805095096    7.08187252921521    0.70008027189800
H         8.52358990147227    6.05241584665952    0.14298394835508
C         9.33715979725889    5.52736336347877    2.05711464653417
H        10.00405226043965    4.82732730130734    1.54933721111074
H         8.47897758095075    4.95084343023804    2.39193329000319
C        10.10424316896964    6.09398126635698    3.25221550120152
H        10.56955954401788    5.25348379269349    3.78726598088443
H        10.90861591767328    6.73171677031031    2.87170841100718
C         8.22584768400707    6.03690175215130    4.74127813463028
H         7.73054328783078    6.55689890797550    5.55435674011125
H         8.63439086280490    5.09568023567039    5.12080352862592
H         7.46928901623381    5.83344386702301    3.99535330265495
C        10.10546851381836    7.35274433907608    5.31320850246737
H        10.74394596906689    6.54938897797477    5.70282492210498
H         9.42010654904216    7.65427425279695    6.10457013644028
C        10.96066450239685    8.54814107287365    4.92547355661364
H        11.53977879513913    8.87938831213632    5.79545328156303
H        11.67426981525274    8.25401473209970    4.15262297213490
C         9.60646331337657   10.42066554470913    5.54016887521119
H         9.11731514422349    9.76123247538946    6.25017205243462
H         8.85714765250311   11.12600948533769    5.20241501582559
H        10.41172115465343   10.96014920595819    6.04895767037584
C        10.94356429582311   10.46565058724384    3.52019073934703
H        11.35025804064249    9.80351347159246    2.74525469818933
H        11.79200236523923   10.87052490945278    4.08923196224197
C        10.24379699555198   11.62626405285881    2.81832467587410
H        11.02372785499676   12.23399834508661    2.35485870174212
H         9.73944201394061   12.26356170361019    3.53977196414778
C         9.29388273574732   11.19478860874046    1.70139883872591
H         8.97795681283652   12.09194123666954    1.14970264242092
H         9.85350400021771   10.56011649864255    1.00843016105741
C         7.22348497732064   11.36086224771269    2.89301166716192
H         6.40737149569043   10.78625452433881    3.31931897738524
H         6.82330499501865   12.13032070986765    2.22558280123208
H         7.74070788513112   11.85016350145478    3.70835290321121
C         7.34541102518423    9.93793262608537    1.02484837602297
H         6.34300178300770    9.71374101044762    1.38546243350986
H         7.26526972378081   10.69310500441170    0.23177824471473
C         7.95755103553165    8.66731093285205    0.45983979537502
H         7.38980808934610    8.35361935164776   -0.42642594648890
H         8.98136094500151    8.86993599455932    0.13401408365239

