25
CSD_code = RAWJEG | q = 0 | S = 0 | Stoichiometry = C2H11B10ClHg | MND = 2
Hg        1.45719888700915    5.70190905603779    6.11317232096134
C         1.43232066587727    3.71902743449271    7.33678400086653
B         2.57463600396076    2.47378026276615    7.06969617691926
B         0.91715277489822    2.29809204081444    6.49299006359560
H         0.57392213045777    2.44152178382671    5.37589186679777
C         0.00451896055033    3.11052325303633    7.69729817370224
H        -0.86644940093533    3.65767521155701    7.35313560178349
B         0.89397203903339    3.82499200518172    8.97847035333280
B         2.56045003235949    3.40386034146479    8.58376471245899
H         3.40504049072689    4.20200347738244    8.76993990904330
B         1.68057304537464    0.95325074835461    7.32777744066629
B        -0.00142126791815    1.40545709263475    7.70525943947704
Cl        1.21298698330021    7.74379020248781    4.82157232749129
B        -0.01537621794775    2.33214273505524    9.21429418172561
H        -1.00710254489119    2.38146229895869    9.84113811053694
B         1.65737428628997    2.47827629905343    9.81094908809432
H         1.91599729182657    2.54206891645312   10.95432702028731
B         2.70877714253816    1.63365987203255    8.62960188869413
H         3.71189167022421    1.11749609862072    8.95596816619896
B         1.10380830459507    0.96652504878782    9.02425525481940
H         0.96806056249473   -0.02818633802272    9.63386294209227
H         1.95516153169909   -0.03548269958530    6.75747464193755
H         3.42822700113325    2.67589095540611    6.28503630905731
H        -0.98411816420002    0.86009648081374    7.36477450532641
H         0.53669779154354    4.88306742238965    9.35116550413336

