74
CSD_code = RAWKOQ | q = 0 | S = 0 | Stoichiometry = C39H29IrO3P2 | MND = 6
Ir        7.18066137349442    8.93098662693731    9.16794977704827
H         7.51540098314911    9.36731329692430    7.70058906435417
P         5.80187817734448   10.85797914269461    9.29738416283291
P         9.22090714458220    9.93061872658051    9.88528288323007
O         5.11091333525811    6.96163639058832    8.46681289536017
O         7.90630185685401    6.19255273998932    8.42902593501841
O         6.68466440360684    7.65774354764088   11.87577702281565
C         5.44470208000939    8.11324018258895    8.37320762997127
C         4.56027715416462    9.10732896534385    7.66050816142418
C         4.64293014809773   10.47227564524743    7.95420639210748
C         3.88480303328877   11.39208096897152    7.24354839295788
H         3.97913684320929   12.45007151770712    7.45236761927493
C         3.03169328795495   10.94798328649646    6.24616701604491
H         2.44844242096114   11.66230690128080    5.68320744275248
C         2.92660058735771    9.59364266506327    5.96770696773904
H         2.25615568898818    9.25611892481402    5.19109047971109
C         3.68472053398506    8.67415566611640    6.67177631511521
H         3.62270773198876    7.61711241843400    6.45928390745955
C         4.70531255524068   11.19526885993787   10.71918939495935
C         5.20273258014094   10.94514306602152   11.99461274848685
H         6.20354315889971   10.54903485912204   12.10879831045381
C         4.42586178910381   11.19630859002941   13.11029794253448
H         4.82160524902951   11.00084670579736   14.09626935344429
C         3.13965896017889   11.68776540242265   12.95915251856340
H         2.52810020019338   11.87871371039244   13.82851498336727
C         2.63471868926947   11.92565257136621   11.69109243464635
H         1.62863123830126   12.30075624150938   11.57234554370523
C         3.41144041511215   11.68292560737839   10.57251120255564
H         3.00906765672257   11.86325395905473    9.58650226990466
C         6.44111013260982   12.50891582905605    8.89878637297609
C         6.98904517681145   12.70217401676776    7.63226203140025
H         6.91790951148712   11.90817094211560    6.90143457041653
C         7.61837809909021   13.89151197198652    7.32354116079121
H         8.03522558688702   14.04071252651215    6.33856697953052
C         7.72615712855255   14.88880341259889    8.28030011575591
H         8.22812756061300   15.81455389492525    8.04148050216441
C         7.19225387050863   14.69737660108468    9.54356450537988
H         7.27597076804956   15.47447986464020   10.28970388687843
C         6.55210518308454   13.51176059537941    9.85681521788925
H         6.12947035892978   13.36583127572753   10.84237745169576
C         8.33700880294853    7.25946178923413    8.78213286132918
C         9.83250178757745    7.42598548041747    8.96672683086561
C        10.38834551204478    8.60774857554853    9.45983820084657
C        11.76592318563677    8.74316404156547    9.58516598223262
H        12.18103001304241    9.67093108196483    9.95725722096651
C        12.59286102486039    7.69193670416368    9.23131181957011
H        13.66395996340606    7.79435723003776    9.32776174169078
C        12.04791585743058    6.50901743213200    8.75171323835573
H        12.69761632420400    5.69117765997392    8.47682695031591
C        10.67827395614205    6.37620521642671    8.61869997072959
H        10.23664189619122    5.46543654543540    8.24086510026326
C        10.00857497381780   11.36935465997918    9.09377821340984
C        10.44515477992065   12.50691969617078    9.76167016636292
H        10.37844684336968   12.57105765616288   10.83803386599635
C        10.98447791301823   13.56154858612925    9.04585101080214
H        11.32203802445665   14.44357726843916    9.57066862220966
C        11.09674851484857   13.48963278218388    7.66838020699487
H        11.51835769552727   14.31694407132000    7.11678807146366
C        10.67002155293133   12.35303748312264    6.99920146272226
H        10.76098038082178   12.29049120134503    5.92466660871373
C        10.12285892776639   11.30155290534323    7.70624519609470
H         9.77292696308238   10.41546510798903    7.19369526944161
C         9.46885204059320   10.21578859841751   11.66165990564144
C         8.77269554541545   11.28324940008015   12.22924906630039
H         8.19335618329856   11.93559285134733   11.58521455154593
C         8.81759661101339   11.49997604795874   13.59254548344116
H         8.27965044595306   12.33145385790319   14.02511172989892
C         9.54274700345034   10.64083617241687   14.40434726046228
H         9.57430494045567   10.80480565136837   15.47122859777971
C        10.21451569283323    9.56488827074302   13.84859645245670
H        10.76736609547566    8.88777499989824   14.48309779487015
C        10.17567375506039    9.34509850022738   12.48252799087661
H        10.69014131187297    8.49628078021404   12.05412997774526
C         6.82491282847091    8.16164357715074   10.85630101487982

