79
CSD_code = RAWLAD | q = 1 | S = 0 | Stoichiometry = C40H33IrNO2P2(1+) | MND = 6
Ir        0.11069005858775    4.68319610937520   13.59283860617294
H        -0.84473061632318    3.73743952741028   14.33905894087232
P        -1.12053793474980    4.45150431994629   11.51278827134976
P        -0.97166444093580    6.54168538102893   14.58120067893153
N         1.39172543941979    5.91535313093613   12.68833327859208
C         2.02894007914913    6.69499889527164   12.13557196526390
C         2.81689266796359    7.65980291712044   11.44618806298716
H         2.67620143930830    8.63869755979501   11.90577813533329
H         2.50520777181460    7.70217699503638   10.40155058252005
H         3.87034841958133    7.38410039644120   11.49917932623247
O         2.33086305100827    4.19336164804196   15.36616602699953
H         2.48563778663960    3.18324966551371   14.21166091081887
O         2.20670373580685    2.65258712739887   13.37449894314182
C         1.07993661502540    3.06718778489099   12.91637985765151
C         0.54470348902040    2.28379546882507   11.80026544341911
C         1.07922801595805    1.03303882632460   11.47283138917546
H         1.90753403407203    0.65053006025735   12.04975297895841
C         0.53798561753335    0.29552843404168   10.43852199709130
H         0.94972351635676   -0.67183653513179   10.19577169333829
C        -0.53815466702021    0.79136759562939    9.71571321661154
H        -0.96184703558945    0.20860299285386    8.91198086268313
C        -1.07317620354045    2.03396590701957   10.01905874617133
H        -1.91223760366849    2.41293529362532    9.45461722905723
C        -0.53674015984905    2.78420432753212   11.05250948990132
C        -2.92182641361594    4.35132272841501   11.29642982164497
C        -3.68991552928693    4.20038542155459   12.44684962349231
H        -3.19752934647144    4.15817100474170   13.40827472121066
C        -5.06645682628625    4.10690730677323   12.35671592378533
H        -5.65652119027408    3.99604307518548   13.25358281897232
C        -5.68250843059194    4.15832582737866   11.11719615957434
H        -6.75675266446929    4.08636347890954   11.04337819856562
C        -4.92072559367548    4.30374501561028    9.96806620442421
H        -5.40185461081249    4.34194612682292    9.00222381444183
C        -3.54402650729776    4.40373571749573   10.05078730234363
H        -2.95877740687066    4.53346895118094    9.15060301692101
C        -0.55845093790857    5.44573168299619   10.09690616274610
C        -1.27027970427483    6.58045118898285    9.71368997630389
H        -2.22535778830341    6.79671737491656   10.17489668859069
C        -0.77209619501920    7.41376417132185    8.72898101294754
H        -1.33530297703630    8.28395210122080    8.42655151593803
C         0.44383926385474    7.13013809432292    8.12723386149160
H         0.82915380310100    7.77933026959375    7.35571483890351
C         1.16088704668219    6.00779825529059    8.51199468272929
H         2.10523353079923    5.78061648267565    8.03936749398814
C         0.66819042870964    5.17212387658415    9.49814070889436
H         1.23069796848799    4.29825161511358    9.79907485565769
C         1.24556523091289    4.75902445061632   15.29384564803444
C         0.76058763444285    5.56944797161698   16.43814903463976
C         1.35726682841890    5.44952118714312   17.69237289523362
H         2.19354123400915    4.77692406781361   17.81174545919842
C         0.86455999358858    6.17312101132375   18.76280743525165
H         1.32167140233685    6.07121977465494   19.73497191239841
C        -0.21993893151362    7.02286108585267   18.59533697949277
H        -0.60433028928598    7.57820306816517   19.43742357284487
C        -0.81375596757830    7.16330136451836   17.35099030541871
H        -1.66091156573374    7.82232369939499   17.21754186176273
C        -0.32315342465791    6.44073234690561   16.27267541259145
C        -0.45819809100185    8.18880668136690   14.00065876862084
C         0.16281447510982    9.13666702100486   14.80465664608518
H         0.33421150442742    8.93513005282964   15.85187905272825
C         0.56364911994614   10.34448306481549   14.25827299173164
H         1.03978070438101   11.08204937507957   14.88634197435010
C         0.35724549349090   10.61021482635051   12.91434879006124
H         0.67061001281348   11.55497305240408   12.49676312392190
C        -0.24903680614683    9.66101876627692   12.10523231081698
H        -0.40621450700730    9.85974819532468   11.05518669636903
C        -0.64883398515791    8.45431086145487   12.64603855581109
H        -1.10845617980449    7.69941363914068   12.02026368447890
C        -2.76384629606702    6.69120501272563   14.82754408837108
C        -3.54517465414146    7.64505066044513   14.18724899032246
H        -3.08631037283585    8.39110219238806   13.55394369848655
C        -4.91659719287212    7.64678349187859   14.37623711092690
H        -5.52272243465413    8.39223187292928   13.88386766417143
C        -5.51035943108178    6.70093696253611   15.19473560725637
H        -6.57980122836818    6.70985467264168   15.33961347169830
C        -4.73260932293017    5.74405204135712   15.82971800290857
H        -5.19449467631749    5.00703608092937   16.46919646090480
C        -3.36439617850339    5.73210559472102   15.64203520952427
H        -2.74741509322579    4.98408225712440   16.12328054672447

