85
CSD_code = RAWLAC | q = 1 | S = 0 | Stoichiometry = C34H41BN7OW(1+) | MND = 7
W         3.93668570550912    3.44083288809137    3.94924782351038
C         4.98791726983198    2.58665947297357    5.37461708848209
O         5.61806333028652    2.26463986683305    6.28685922564573
C         4.17573458603808    4.88645284103459    7.13596958415805
C         3.71821265911418    4.54355603198850    5.76840703568145
C         2.74565744605531    4.84644459685633    4.94018895090619
C         1.57120532506446    5.67400730131850    4.83825569420208
C         1.52394705921785    6.93015062436614    5.45181562774154
C         0.39914328511868    7.72216404920546    5.33040030285569
C        -0.69704837802418    7.27322198452311    4.61026022551459
C        -0.66523635850677    6.02487787712374    4.00829099764611
C         0.46109327247833    5.23300880940745    4.11157793351808
N         5.64194851614548    4.50634959723441    3.37061765162407
C         6.30096704081592    5.50227573721097    3.85622036559819
C         7.55518802708649    6.04821055253112    3.24343569775591
C         8.05180697585398    7.28955267594000    3.98531410234899
C         8.61628254152059    4.96119635162235    3.24206158864150
C         8.90731986836148    4.27183605199296    4.41391005040476
C         9.88425485497763    3.29296727802771    4.42546193370096
C        10.57992918940300    2.99085316371194    3.26627149303707
C        10.29280365758088    3.67077554839708    2.09525902564799
C         9.31236492470433    4.64914741225957    2.08266695051834
B         2.22960647047016    1.96302349572460    1.55231673980944
N         2.27641820766196    2.05451905982866    4.05574936124207
N         1.65628074760306    1.62516365704242    2.93597491733572
C         0.56742712383764    0.90401424455577    3.25716327833962
C         0.48058854261221    0.87635571022408    4.63968490570379
C         1.57255607679445    1.60518964606659    5.10526036259474
C        -0.33981025270482    0.27599539151721    2.26602532842402
C         1.93598827297808    1.89332637124901    6.51723551516104
N         2.97569771673880    4.26803159085611    2.18137159891546
N         2.22298141335202    3.48338137763783    1.38460952379310
C         1.58247830681182    4.22982118157460    0.46390932795195
C         1.94300929351488    5.54668889145755    0.67894882293381
C         2.82037253116692    5.52592361005036    1.76431624012262
C         0.66426238794429    3.68215410662899   -0.56471529461004
C         3.50356808804685    6.70709451020567    2.36183083515776
N         4.58623377049411    1.98618621806148    2.45792522676654
N         3.70058037688034    1.50446084929547    1.55356357082235
C         4.29470581209759    0.60047789549491    0.75933371562463
C         5.61701646861493    0.49482934331414    1.16279840017923
C         5.76083171473717    1.37314539961665    2.23286808800413
C         3.61413925439065   -0.12941776884133   -0.33704570898703
C         7.00891015759628    1.61123334797051    3.00727849923275
H         1.62262589832651    1.43329603511692    0.69825371861020
H         4.87591635378346    4.15588355324590    7.54002413841675
H         4.67327986811147    5.85847416131716    7.12267950892148
H         3.32042147561732    4.96376379611422    7.80953937587109
H         2.37997598254439    7.28013377853383    6.01002284624818
H         0.37344589830062    8.69237185051004    5.80295702349645
H        -1.57496778058125    7.89398126398349    4.52065505908048
H        -1.52095650630265    5.67214809825436    3.45255061021496
H         0.48279403148609    4.25578570646670    3.64855921967788
H         6.07750957706204    4.17097254718895    2.49907746086474
H         5.95316870412506    5.93385692745697    4.79085473649259
H         7.34935355705797    6.32127564415010    2.19982786344732
H         8.95347699647463    7.66882693397008    3.51209026116817
H         7.29712024175838    8.07249168935180    3.96877347046603
H         8.28735585959387    7.04866793628814    5.01857625461581
H         8.36775255756304    4.50299186071196    5.32078168473674
H        10.10493189307794    2.76708806455198    5.34148010100496
H        11.34576116524888    2.23099581986499    3.27649962152186
H        10.83357599465350    3.44344698368398    1.18914610761232
H         9.09780109637550    5.18043128557234    1.16587957374960
H        -0.26962361710833    0.39140871986139    5.22871862520730
H        -1.15142218956089   -0.22506439848798    2.78509893507278
H        -0.75930973717705    1.02374591466139    1.59597955449418
H         0.19426484006156   -0.45527256414937    1.66257081511763
H         1.32787319559274    1.28325240266712    7.17976012209975
H         2.98773567817796    1.67303617065785    6.69971412413676
H         1.75446317765947    2.94404373237380    6.75052340387801
H         1.61713546094936    6.40574998423605    0.13059225851561
H         0.26074080034320    4.49725438520688   -1.15825791209880
H         1.18703515696244    2.99349773130008   -1.22580074867331
H        -0.16009727610190    3.14437799668345   -0.10063747429680
H         2.80647172347487    7.54153580107410    2.40647279004248
H         3.86659347104661    6.49697217925555    3.36759334949050
H         4.34437023342276    7.01028133212703    1.73642666457043
H         6.37211423920937   -0.13650712125940    0.74304130102842
H         4.32724471287380   -0.77828508089767   -0.83691345364145
H         2.80046849437422   -0.73758481372569    0.05288078530228
H         3.19848020754566    0.56456086179159   -1.06466162790878
H         7.44241156299476    0.65535990520668    3.29500904268443
H         7.74774499829863    2.12931667128504    2.39491419302005
H         6.82387872242737    2.19475741140769    3.90573401203097

