54
CSD_code = RAWMOR | q = 0 | S = 0 | Stoichiometry = C13H34O2P4Ru | MND = 6
Ru        5.60476060076634    6.40040410940055    9.79539668286358
P         7.18020306941421    7.32588452041746   11.13302749636927
P         4.16927978309085    7.31754355758317   11.35753994038079
P         3.98093026244512    5.46464030845013    8.54159997709100
P         7.03588910782246    5.47131220931868    8.31691518232837
O         5.79507386682650    4.43722691121235   10.77493026198351
O         4.98095500412643    5.34970128731475   12.63205919289408
C         6.41996034954223    8.62802466612843   12.19943837615115
C         5.07994476954838    8.14761539632348   12.73708250248420
C         6.09829348400227    4.21892169803939    7.32710241181766
C         4.73208762898191    4.79230009821131    6.98718805408690
C         8.09908743840381    6.33692275960333   12.37867984530902
C         8.56587598904670    8.28374397927451   10.40544770311497
C         3.14087272828046    3.97436481637918    9.20365335568333
C         2.54217726371077    6.35847966136713    7.84019167026677
C         8.44868540855764    4.44036821728538    8.86457244919635
C         7.82555837172863    6.46125713423007    6.99130899392843
C         3.41545266535343    8.84454306533982   10.62500079735941
C         2.61840843925025    6.72261536020754   12.14280622262418
C         5.43048005973267    4.42200199133347   11.96028576537887
H         5.53550972655263    7.72035353251008    8.99016265129293
H         7.10899455759558    8.91007044474140   13.00358021599943
H         6.27094568221263    9.49306286848640   11.54304650205557
H         4.47890232653679    8.98292407902959   13.11180390687789
H         5.21769738340371    7.41901323123138   13.53619521512555
H         6.66138825778464    3.93295381487995    6.43191831973025
H         5.98721804578434    3.34058531733917    7.97236389976042
H         4.07352852343455    4.04604731924163    6.52962858735711
H         4.84005034524744    5.63945172924436    6.30078858141335
H         7.38873314335172    5.93320852820076   13.09815146604652
H         8.83094736665487    6.96352946445115   12.88990248030038
H         8.60364477751785    5.50821809528982   11.88176556615076
H         9.26510457654408    7.59879899063739    9.92636038481241
H         9.08482062623853    8.85605189942117   11.17470576436197
H         8.15507203604675    8.95445487452572    9.65231579715931
H         3.89434018944404    3.23066533484644    9.46028618372582
H         2.43900769355803    3.56663710810502    8.47517704749041
H         2.61212130297625    4.25447378043422   10.11531297583444
H         2.89728789620828    7.28003107411939    7.38152012282257
H         1.84781112318578    6.60464688795529    8.64302822323878
H         2.03705819409903    5.74066092719162    7.09709598755080
H         8.08801926804128    3.75993139675089    9.63494216887766
H         9.22070207046047    5.08321491169681    9.28839947310236
H         8.85951284555074    3.87555410163791    8.02688547543169
H         7.04898679036385    7.01124731219408    6.46236280858211
H         8.37540068733108    5.82135542442330    6.30095149488636
H         8.50158238715511    7.18122063095024    7.44952145274616
H         2.80105556106339    8.56123996834104    9.77279666387784
H         4.20758024653844    9.49514510969966   10.26054957146587
H         2.80304084061217    9.37697180183121   11.35356130137023
H         1.87751437328906    6.56094943801718   11.35830306988998
H         2.25880548580062    7.49646041356277   12.82113473551161
H         2.78432474746260    5.80215850465812   12.69202185460865
H         5.53851463132338    3.42363993693407   12.46843316923354

