89
CSD_code = RAWPIO | q = 0 | S = 0 | Stoichiometry = C42H32F6O6P2Pd | MND = 4
Pd       12.09404450350620    0.27411418240055   18.07774095469394
O        13.74611819433967   -0.74411319317630   18.89933368849003
C        13.76375122808781   -0.41652103752672   20.09952808818637
O        12.88522004329323    0.15203788553243   20.74167464485360
C        15.03021440516927   -0.87385928359212   20.89111053246318
F        15.87731634985594   -1.59133780043866   20.14511061843301
F        15.71976141525734    0.15021862044150   21.40263633567086
F        14.67666336551852   -1.65965723639298   21.92729311322339
O        13.48190151263072    0.98918000639700   16.60186814628468
C        13.99352190113983    1.91332847641006   17.26720577155049
O        13.66325211475026    2.30225372632877   18.38170405864085
C        15.14843692980854    2.67133587920498   16.53880241443991
F        16.33319004129602    2.06277297153440   16.67820167868391
F        14.91717264478482    2.77247197008790   15.21774681158334
F        15.29526152233399    3.92435842272912   16.99176071907037
P        10.69340832537701   -0.64975075021326   19.53687246440757
P        10.50194297385479    1.34078895686901   16.95184601646962
C         9.24821189832770   -1.33921608520621   18.63958155883560
C         8.28114655157354   -0.49259217827300   18.09989728869784
C         7.27064957434779   -1.02048635107790   17.27548376776496
C         7.23873342388496   -2.37940471672820   16.99648732937997
C         8.19227952536511   -3.21348338590912   17.55298944450392
C         9.18796229283830   -2.70427139260934   18.36000069146232
O         6.38711182933538   -0.11395414458024   16.77841126201457
C         5.33325255845305   -0.57580315514061   15.96817142686508
C         9.01187952044560    1.91167166723195   17.82646406911429
C         8.17502145538547    0.95510145899347   18.39690617822994
C         7.09117578716018    1.36669709473040   19.19095873215919
C         6.86415758358031    2.72058165451659   19.40174360368409
C         7.68813881021661    3.65915644979712   18.80554974549102
C         8.75827375111983    3.26653850627326   18.02835691028642
O         6.34029594166412    0.36776373041423   19.72072754751317
C         5.22792005144279    0.70832965663762   20.51323059075347
C        11.34488772467445   -2.08529856307292   20.43369066938952
C        12.10105103237045   -2.99006603206588   19.68723685925772
C        12.70469213022581   -4.06601845444851   20.31016018393265
C        12.56295862998062   -4.24029239782176   21.67813207207745
C        11.82359461665706   -3.33583880305943   22.42117331673147
C        11.21786526542709   -2.25371358419690   21.80580099278493
C         9.97138530443422    0.53636373728084   20.69171219847090
C         8.90889726694810    0.19659594324482   21.52152351624320
C         8.38079772646274    1.14991537226162   22.37391704691331
C         8.89388496756112    2.43698043252250   22.38046059146888
C         9.94573926800219    2.77637332372894   21.54304977360065
C        10.49258637214633    1.82694215530234   20.70036791154781
C        11.15506562901665    2.79441966244166   16.08757283588005
C        11.70526867755402    3.81035852341444   16.87197492450652
C        12.32263024553440    4.89061421737452   16.27038988144324
C        12.40614362638722    4.95916321366081   14.88807718169040
C        11.87272299200913    3.94677313856673   14.10875628785131
C        11.25242693398629    2.86102078792546   14.70239752720484
C         9.89452009956089    0.21118685257727   15.67032191082109
C        10.57379753218412   -0.99065712104207   15.48281122263147
C        10.13023014927960   -1.88635068281933   14.52651379654639
C         9.02097576289392   -1.58112610402514   13.75335612542625
C         8.35514700777002   -0.37791125848329   13.92874897252328
C         8.78494491869368    0.51937639539861   14.88919744532700
H         6.47553840692825   -2.79823911145859   16.36102575031215
H         8.15450790899353   -4.27292693068206   17.34877707395947
H         9.91516473431272   -3.37404777045516   18.79108157960987
H         4.76184710971240    0.31098698761543   15.69821669601525
H         5.70731945083009   -1.05617727003240   15.05875140777984
H         4.68528526048601   -1.27218514019721   16.50941907428978
H         6.04226836507759    3.05479811000750   20.01384118326644
H         7.49008567616852    4.70963021762122   18.95563663662657
H         9.38629886617791    4.01007888869255   17.56358274209997
H         4.78852576864806   -0.23867707809173   20.82272009262349
H         5.52595562949170    1.27623439243714   21.39971389926143
H         4.48903472748098    1.28063183527902   19.94357862409129
H        12.23579547872870   -2.82258047645606   18.62106305190751
H        13.30041324752224   -4.75798726331558   19.73371379407655
H        13.04707642769523   -5.07189777904925   22.16710203630080
H        11.73318063465402   -3.46213720901738   23.48944114838173
H        10.67391185581810   -1.52676106258655   22.38982173171416
H         8.49491413145860   -0.80192498124209   21.48561717686024
H         7.56914184020680    0.88726233689084   23.03761426569695
H         8.47522780289089    3.17811742697616   23.04573351217539
H        10.34243713855901    3.78022425027715   21.55767856634754
H        11.34506108374365    2.06084905983226   20.05995778974878
H        11.67722464569749    3.72914832432089   17.95254338335483
H        12.76102237566695    5.66594983877205   16.87998896290478
H        12.90518635621934    5.79401178678105   14.42019190068720
H        11.95547481762833    3.99203441201440   13.03332133992029
H        10.85773314115763    2.06052632799241   14.09303041691793
H        11.46130878167486   -1.21087417957782   16.08968685063601
H        10.64902009993769   -2.82132325342629   14.37799653084259
H         8.67776950356093   -2.28103630783108   13.00576775768432
H         7.50147265763143   -0.13718265678963   13.31162064588165
H         8.26509416887559    1.45431291400306   15.04572493005646

