41
CSD_code = RAWPIQ | q = 0 | S = 0 | Stoichiometry = C10H18N4NiO8 | MND = 6
Ni        1.60980051183760    1.11548518353451    4.03232760547851
C         2.36411650112768   -0.78978881268367    6.38698075701001
H         3.13843927887859   -1.19500499926640    5.72610575570811
H         1.43058210351346   -1.29967254984582    6.13165649715236
C         2.72542037464701   -1.17525120718210    7.81290525227910
C         1.12866238905196    1.24023125501553    6.93488679467290
H         1.48813420204669    1.68292052623338    7.86900023436379
H         0.39742517496494    0.46905295075616    7.19191893809333
C         0.34397699892992    2.29921508094797    6.10896214633140
C         3.49224124741031    1.34943008655691    6.37004612263480
H         4.29694918309900    0.74328546266631    5.94607342115400
H         3.68113175569451    1.47851835307201    7.44210332962198
C         4.36266872394840    1.97847670847869    3.55985181626776
H         5.31154651251436    2.14351990876812    4.08272951353803
H         4.45745505078539    2.40440284861929    2.55712144846715
C         4.13537612218535    0.45576240761290    3.34853850224563
C         2.89009067298789    3.89702976899439    3.67283933209807
H         3.75243124562504    4.57680220881867    3.62118642412248
H         2.10482827134487    4.36998364917615    4.27279103422026
C         2.30380210722227    3.72829323572728    2.28034290659632
C         3.48678512370420    2.72484782194062    5.69916260116608
H         2.69802517452154    3.33762781786457    6.14221765170609
H         4.45414994046089    3.21509144765862    5.88478052431032
N         2.22146275830198    0.64428136123443    6.14572521924577
N         3.22929936018833    2.60511913205592    4.26343050925903
O         3.02384222270016   -0.42748190113257    8.70312807951794
O         2.66846154985196   -2.50114974343683    7.96640603347740
H         2.91785595258763   -2.75533712166190    8.86964163403803
O         0.35163309612079    2.13220804068539    4.84073553394488
O        -0.26102565009412    3.18512372461017    6.67806613772541
O         5.08545492591952   -0.28376798624111    3.18826169859785
O         2.91389994421003    0.07687475040003    3.31604495536474
O         2.43335448147832    4.50819562764656    1.37919953727321
O         1.60089534789818    2.60243351435463    2.18333759994391
N         0.13535598788547    0.13557835866887    2.81933995862885
N         0.53270051604836    0.06269817224118    1.44280474484439
H        -0.70961287627356    0.70865657895140    2.88082120072576
H        -0.05853672592882   -0.78556507773593    3.22804173873172
H         1.50846147060557   -0.22880878691443    1.41291818545974
H         1.19455555072716    2.46335487189013    1.31133697778582
H        -0.02379657873310   -0.62717266907059    0.93473164619376

