72
CSD_code = RAWQUB | q = 0 | S = 0 | Stoichiometry = C17H47N2OSi4V | MND = 4
V        -0.46516615671036    3.75985722715988   15.76479683838803
Si        0.78878768119635    0.97639416558037   14.87748793006060
Si       -1.29643003710562    1.18500772883015   17.10320166457672
Si        0.63045036854934    4.81199201528528   18.42039161058480
Si       -1.42322616134607    6.45701691371632   16.95783963141632
O        -1.68325135848301    3.72296543932251   14.10054933201720
N        -0.30193300678032    1.88341850813497   15.87016886119643
N        -0.46976424011992    5.02028867590765   17.08731059580490
C         0.34497504193129    1.15818318846818   13.01467960357880
C         0.77490223969924   -0.91227704413272   15.18650332269172
C         2.61393091186269    1.51231657704245   15.09649016415304
C        -2.59698563794451    2.46533644042117   17.69555837094840
C        -0.31862920913502    0.56767979396681   18.63225280092433
C        -2.31709647887187   -0.31911956114616   16.46938837747096
C         1.91631443728265    3.46355030535402   18.00366611559872
C         1.61354876159812    6.41559847689128   18.79219564285452
C        -0.26147889198109    4.32433203802746   20.04898745759020
C        -2.18953856939339    7.03267796181581   18.61594966103990
C        -0.45233322835600    7.95044084482486   16.24594212629330
C        -2.92643919876315    6.15589514268445   15.80802960326396
C        -2.87731729669679    2.94255077890815   14.15001378583021
C        -3.43576144487843    2.89626853647954   12.72801005691837
C        -2.91833219186474    4.21194236234957   12.15532782763835
C        -1.53501873672733    4.28118390991620   12.79510249554623
C         0.99605300080470    4.72255813035772   14.65291404464655
H        -0.72266130733339    1.06673301781934   12.83942853358187
H         0.83655044951151    0.38139267452518   12.43744518339887
H         0.67633597119365    2.11320022804464   12.62026211558968
H         0.87004663038456   -1.14351292191199   16.24077058695284
H        -0.13756810369274   -1.37478581301106   14.82891034212026
H         1.60491005523657   -1.38483463611837   14.67118711648821
H         3.02631426343792    1.13035186759629   16.02496299827964
H         2.71425069038516    2.59178322219631   15.10708464912396
H         3.22275242944475    1.12465403660235   14.28499303823588
H        -3.50497883033061    2.42632564790671   17.09876552889708
H        -2.19541066443351    3.47654693614341   17.65791915477527
H        -2.88460091679911    2.25632660504217   18.72191857497046
H         0.12951299875958    1.38915257402745   19.18041161615506
H        -0.96747975455173    0.02459153853255   19.31299780546584
H         0.48159859221765   -0.10339818491846   18.33743273612496
H        -3.27688129407963   -0.37966982060018   16.97295359219791
H        -1.79199474597592   -1.24674281030183   16.66221010329781
H        -2.50764598744593   -0.27119818306442   15.40149119132891
H         2.73975744342039    3.87491075676655   17.42799937381339
H         1.46132880797170    2.66720793609387   17.42263308839598
H         2.33592045189936    3.03716266206987   18.90985017591208
H         2.07988006160195    6.80424162376895   17.89321826927643
H         2.39796491323720    6.22812020016083   19.51803982919965
H         0.97388901070142    7.19289410348693   19.19436365563507
H         0.46141154464680    4.09113278334253   20.82482271645088
H        -0.88503701815014    5.13099792047409   20.41769207516885
H        -0.89448908005285    3.45424152940795   19.91348484791357
H        -1.42211252593219    7.32021817298248   19.32530795227918
H        -2.78502445675789    6.24941578370911   19.07345905603782
H        -2.83547852100198    7.89205553725203   18.46649539022748
H         0.15289219576824    8.41962863662663   17.01335428207057
H         0.21452756865697    7.64667560787190   15.44572548546603
H        -1.12588389182787    8.70505085313012   15.85117601188470
H        -2.61712208401975    5.99315729516951   14.78137782252333
H        -3.57958864850840    7.02315493886407   15.81885638464820
H        -3.51263926445920    5.30355241076074   16.13974329529092
H        -2.62387966598031    1.95366812213694   14.54419781396498
H        -3.58820923671508    3.43170358723286   14.82842445893035
H        -3.01468643898010    2.05539579714018   12.17511119237974
H        -4.52040643977719    2.81816932252456   12.71243107559399
H        -2.87468090385064    4.22113442580904   11.06880518648651
H        -3.53966980786799    5.04288133315200   12.49327072857947
H        -0.81705768895937    3.68478785815237   12.21788823289826
H        -1.15625300002134    5.30170195625815   12.89245344328472
H         0.62440316170291    5.67869070233917   14.27059655381428
H         1.89055160597396    4.93640847204372   15.24019774854369
H         1.29348083358355    4.11566513660210   13.79502106531078

