38
CSD_code = RAWQUE | q = 0 | S = 0 | Stoichiometry = C11H22NiS2Se2 | MND = 4
Ni        4.45018357179769    2.13700552587729    7.96911246593914
S         5.94065917652330    1.53754432547430    9.62975928921291
S         5.37114101529300    0.78579945348281    6.46947613917212
Se        3.05103317750734    2.93248462471602    9.55945095156057
Se        3.18024500513786    3.21536892684439    6.46248904225994
C         4.46813763210855    3.35193181081979   10.91786100340610
H         4.27695249644604    4.36314559381464   11.27931180080776
H         4.33287947494187    2.64806712186097   11.74042921640086
C         5.88132145508764    3.24858744394297   10.35981543006987
C         6.90442338350743    3.35470339664371   11.48317820904320
H         6.79686393878840    4.31424698547326   11.98566695856631
H         7.92068710552188    3.28391780545360   11.09963931710697
H         6.75149720087261    2.56435338744454   12.21515252272982
C         6.12169226874770    4.29244067525502    9.27561029581049
H         5.49590631221176    4.06994105688373    8.38560412433391
H         7.16602379537865    4.33194731323491    8.97122394944371
H         5.83689232453978    5.27655830665902    9.64259520636144
C         7.64891100838898    1.38820995703589    8.98830076885305
H         7.98861165976582    2.36820458839841    8.65611234398527
H         8.26171750039587    1.05598869892117    9.82742929594064
C         7.73852220530656    0.37773361372489    7.85064824054058
H         8.79328661838312    0.12317919764835    7.70892776264781
H         7.21157882393145   -0.53861275785795    8.13087393727569
C         7.19494444313913    0.90033593599665    6.52559369146820
H         7.56164506799541    0.28426327203884    5.70333610073168
H         7.49688853933820    1.93570844346570    6.36927613074523
C         4.90727496197113    1.49601351592694    4.81267896776679
C         5.04021589702886    0.38078907866524    3.78219651159295
H         4.71978004520759    0.73805273431569    2.80540187920932
H         4.42307508238809   -0.47219528295623    4.05750530909310
H         6.07415355726496    0.04847265093262    3.70108155638385
C         5.77287379960944    2.69205493562158    4.45432036129603
H         6.79398285367271    2.39737336052406    4.22178848679456
H         5.77532113734311    3.41617245526105    5.27027065758512
H         5.35216559211283    3.18249706744016    3.57828796237160
C         3.45096031620729    1.90309405582161    4.98369466512751
H         2.83532652084889    1.03248691521662    5.21969099616296
H         3.06712503529932    2.36873380992105    4.07420845237713

