53
CSD_code = RAWQEM | q = 0 | S = 0 | Stoichiometry = C16H30N3PPdS2 | MND = 4
Pd        5.90752876399243    2.74877812937300   -0.00326250845389
S         6.62893449921033    4.19117593489355   -4.39419411550724
S         3.80838849119089    1.76170608515447   -0.47410106115158
P         7.90490562155292    3.87173950630610    0.23393425785678
N         5.91374562871154    3.27957172067166   -1.89140715409578
N         3.03231570118193    0.71453523132245    2.00958312202949
N         5.83080919695017    1.74614003290464    2.88035647550683
C         8.95043817128607    3.45754114169856    1.69856558228618
H         8.33233546747153    3.67500747751933    2.57688936287499
H         9.12040399829025    2.37595517596077    1.68347588857553
C        10.27824251401452    4.20542929780450    1.79624538084938
H        10.94947749066363    3.87518026758868    1.00259781375827
H        10.11055884666753    5.27720203722294    1.67168426326744
C        10.94369564851300    3.95133930783511    3.14452677618827
H        11.89740242633722    4.46970515776742    3.20072610728748
H        11.12270383382243    2.88810469375329    3.28754700269960
H        10.31329714077812    4.30517965499568    3.95729942004330
C         7.57038005901481    5.67718740270109    0.41571803417696
H         7.65680316741461    5.93509069036807    1.47648127137549
H         8.30721776950450    6.25555534036982   -0.14870960545636
C         6.15171863104681    5.99193774045508   -0.07343347702464
H         5.43801313325929    5.28794535388629    0.40615342783786
H         6.09854639250324    5.83820942321891   -1.15482372464375
C         5.74929964216808    7.42351227199339    0.25396831494150
H         4.74407028314987    7.62492873065428   -0.10600045545467
H         6.42950906609423    8.12752558360293   -0.22094639896359
H         5.77022424232642    7.59514645681409    1.32854317551098
C         9.00410239851615    3.67699883178193   -1.21861120564422
H         8.52443486375102    4.18775394045878   -2.05943685957805
H         9.97511216825368    4.14478340958536   -1.03794184793136
C         9.13950350336363    2.18479046903597   -1.53388937973625
H         9.77801943426741    1.70376851041558   -0.78752326528242
H         8.13894915897329    1.71887659147616   -1.46998078933354
C         9.71147521053178    1.95785716567794   -2.92633428486323
H         9.79703155827046    0.89454972992896   -3.13513881004163
H        10.69885390451672    2.40734552141943   -3.01297935731139
H         9.06230637351748    2.40336140890473   -3.67582929021681
C         6.21320166741892    3.65603928852382   -2.96790465332665
C         3.38363746257857    1.15980931870025    1.00260096706420
C         5.83705690885977    2.15160421737098    1.79171184604608
C         5.64523409489624    1.18826321845018    4.16180844477765
C         5.44428011540095   -0.31778051092884    3.98181235220735
H         6.31794756548807   -0.77132068108359    3.51853862545157
H         4.57665743109626   -0.49102187236461    3.34833081677539
H         5.27594964026372   -0.78232434469879    4.94909561909792
C         4.39251885981660    1.82715449414565    4.76465036582106
H         4.51719702136387    2.90341223662722    4.86421447448613
H         4.20135148290392    1.40155113466692    5.74548554371343
H         3.54103298679176    1.62688381639247    4.11733339749554
C         6.89347189602059    1.49551519940126    4.99325693794557
H         7.78013233104507    1.07395846739864    4.52392220415129
H         6.78545159772364    1.06226614739804    5.98350754092703
H         7.03012453725172    2.57007444447708    5.09798343098815

