33
CSD_code = RAWTIT | q = 1 | S = 0 | Stoichiometry = C12H16AgN4(1+) | MND = 4
Ag        4.39673511187860    1.86291102519420   10.19104363707240
N         3.58660712360381    2.71601531616662   12.24100212460939
C         4.42770080699139    2.68422796031752   13.27426852447589
C         5.73551166380579    1.95700065491938   13.08270837565484
N         6.26983923398254    2.14619707965324   11.72973547748787
C         4.11245181102906    3.26162372742520   14.49851694667162
C         2.88739851070548    3.88724928051146   14.65479702142267
C         2.01741353258297    3.92056930646911   13.57565649922334
C         2.41316886355028    3.32382116276362   12.39190701986002
N         3.93610831295288    2.62853099620557    8.00470366393857
C         3.83306282540476    1.70121523002227    7.05321276030945
C         4.18631202395577    0.28225550655121    7.42456952725635
N         3.77296747447522   -0.04095273535253    8.79434996133996
C         3.45136050231286    2.01776088580798    5.75483351810683
C         3.16997930767144    3.33511434912313    5.43569698245193
C         3.27464879395768    4.29541006821124    6.43042847055736
C         3.65924746158070    3.89259454240980    7.69673776670372
H         5.54689785366395    0.88726482129243   13.22346018614372
H         6.44286611115742    2.28093837858278   13.85682767414951
H         6.61632829450552    3.09906758222094   11.64379138378660
H         7.06919574919337    1.53373923241544   11.60007443020455
H         4.81634430498545    3.21767630377749   15.31479619315044
H         2.61912296989137    4.34077233684880   15.59625826375954
H         1.05394623901144    4.39753139414098   13.64969105877266
H         1.76524111430938    3.32518926644392   11.52586100831021
H         5.27573626907024    0.18346307949326    7.36936593281716
H         3.74680737650248   -0.40135690362302    6.68689017935211
H         2.75987539297500   -0.13305002465544    8.81829595931612
H         4.15318741432420   -0.94683936744873    9.05066243929200
H         3.37900158227243    1.24285888319862    5.00785664528432
H         2.87277461664557    3.60561404358168    4.43444970408591
H         3.06358180595745    5.33284411019368    6.22944304967296
H         3.75647954508897    4.60854250713439    8.50160761475846

