47
CSD_code = RAWXUI | q = 0 | S = 0 | Stoichiometry = C16H7BCuF15N6O | MND = 4
Cu        5.79955897768188    6.07921229377345    7.48699648431694
N         2.91979453251606    6.42662280709391    8.13625312122219
N         4.13472195525031    6.78732196267642    8.52627433905808
N         3.42644343946931    6.35423179311023    5.72112183849157
N         4.73140538634346    6.59160824974352    5.76568905202369
N         3.48965858671667    4.27252275000542    7.05402766848652
N         4.78413516968712    4.27178983812813    7.34423878745449
C         3.99613358060444    7.51602507995230    9.63001924197019
C         2.64306331806583    7.63465965031915    9.96076548697474
C         1.99835872284304    6.91722358207589    8.97392457535699
C         5.14755356636982    8.15643141115409   10.33058284633545
C         5.53246213503591    9.49698601105048    9.64007451504116
C         5.05096977041478    7.25063143836565    4.65671506376555
C         3.91367045222079    7.44107852371711    3.86521756900983
C         2.90184562424565    6.85193999329343    4.59460362473836
C         6.44866015723146    7.62491914687172    4.29111982492182
C         7.06277445170695    6.53066968988258    3.36765568097196
C         5.16515979757762    3.00244721533193    7.45331153236805
C         4.07911143747182    2.15374450151470    7.21950680825469
C         3.03260364138214    3.01734176542713    6.97013135410225
C         6.56644600246446    2.59014843067795    7.76137838549733
C         7.47678483627744    2.62072508357793    6.49718598763833
F         6.25285167179289    7.37474069467507   10.37350743209998
F         4.83561766162122    8.44040785032415   11.61831800942946
F         4.49437017726506   10.33870759932793    9.66668222995523
F         6.55826621880668   10.09925980345629   10.22892821088653
F         5.85123920812130    9.30328903788752    8.35898170935412
F         6.47956859498746    8.79499155957063    3.60538534907858
F         7.26715599497280    7.78981984138723    5.35395653289751
F         6.44284253356877    6.53207331395565    2.18369487398103
F         6.89596424171317    5.31582519757669    3.89508760133125
F         8.35879894197654    6.70802580838874    3.14829392162617
F         6.59257941988599    1.32470940862753    8.24653116652797
F         7.15080342604450    3.36756653771889    8.70576570700729
F         6.84590224716689    2.07994045204600    5.45184105659806
F         7.80258176830634    3.87168889882430    6.17279589943340
F         8.60560160568794    1.94353651880500    6.67933366754253
B         2.72725298711071    5.59294017647636    6.85894365507169
C         7.53223004388042    6.36035960438134    7.87552799697880
O         8.62106574832088    6.54062803333087    8.11793610632479
H         2.22306334977215    8.16045993820357   10.79165844556917
H         0.95399345489745    6.73539799450825    8.82687607373992
H         3.85848353906310    7.93516378655181    2.91845620336736
H         1.85854154176646    6.76026668918978    4.37428668438642
H         4.07641240518734    1.08472089958935    7.23859719119450
H         2.00774888941224    2.80828750615731    6.74349360502601
H         1.58694878709700    5.40841163129357    6.62682688259098

