26
CSD_code = RAXBOK | q = 0 | S = 0 | Stoichiometry = C12H6F3IrO4 | MND = 4
Ir        3.07759700309453    3.94215446879873    3.33509297328548
F         1.53038436362340   -1.11172032780338    2.33012421663002
F         2.94858313720498   -0.72266992952762    3.89853590931405
F         3.54053735237176   -0.53341746149663    1.83487517448460
O         5.93740477885331    3.90781336243095    4.26492316156794
O         2.89746158515544    6.92600448867476    3.65204115197948
O         3.09696351855279    1.93911755344594    3.09271191082496
O         1.16383074381609    3.84728274884531    2.70570024027691
C         4.85151927571634    3.94255920111514    3.91290747685753
C         2.98110900664147    5.79033671283154    3.53557288781659
C         2.53763115100052   -0.30405084110641    2.69428118969286
C         2.15469515868866    1.18638214989626    2.71894307483925
C         0.87368108498910    1.53012932798237    2.33982842448357
H         0.18092924878516    0.75507713121952    2.06493704339498
C         0.44419067372397    2.87826403796349    2.34341082796811
C        -0.94177003646784    3.18822597746158    1.92865821664320
C        -1.64038762298874    2.40507013123318    1.01150016544218
H        -1.17026711780837    1.54769857131711    0.55481310240604
C        -2.93098511415226    2.74583661013405    0.65214324492236
H        -3.46419789179588    2.13874637374799   -0.06405087010135
C        -3.54012074126023    3.86152210089857    1.20413149733009
H        -4.55082416805641    4.11814700021569    0.92429117201782
C        -2.84812355194512    4.65084495491554    2.10867347374194
H        -3.31722524236511    5.52446122641420    2.53558036424702
C        -1.55435417969585    4.32226604069710    2.46292731333370
H        -1.00376241568165    4.93121838969515    3.16454665660075

