37
CSD_code = RAXDAV | q = 0 | S = 0 | Stoichiometry = C16H14N4S2Zn | MND = 4
Zn        0.05966022216652    0.00137645958797    0.00245019917787
N         1.38141643373777   -1.17342745146638    1.27803911894751
C         2.67781024799123   -2.69618061462293    3.22613604443861
C         1.20240973099475   -2.48996024035051    1.34846613214685
C         3.34911945255111   -3.50212030621632    4.28505106667214
C        -2.80273818161170    0.53629769072345    0.42734595714014
H         4.32607627325835   -3.09050208769649    4.52677580926202
H         3.45882981991963   -4.53855647181332    3.97677955809530
H         0.53103241413436   -2.91793517431892    0.61623426467998
H         2.31451241650570    0.46807018913351    2.07495781959195
S        -1.43544588328868    1.38198992895389    1.10557695640875
N        -5.02715611274639    1.52236069871340    1.20458233199735
C         1.82518086132860   -3.28113133756902    2.29405442719604
C         2.85839499181207   -1.31729339837491    3.13990244025656
C         2.19645296396614   -0.60310334333316    2.16143484789762
C        -4.03953109593721    1.06173660456638    0.84246794112474
H         2.74454704797620   -3.48205891103615    5.19227303126826
H         1.64340464534442   -4.34446796639469    2.30756562640847
H         3.50687153149878   -0.80558434098048    3.83408418047206
N         1.37886391774689    1.17560714974543   -1.27595135731691
C         1.19994402861866    2.49202288319316   -1.34854446265516
H         0.52837231319896    2.92121385645866   -0.61720034129783
C         1.82288820121806    3.28159229388544   -2.29536959771212
C         2.67570378960550    2.69505741879835   -3.22628597179233
C         3.34778395472129    3.49925384501099   -4.28604343463720
H         4.32475659497875    3.08696583207644   -4.52658252127071
H         3.45766241880260    4.53609599480132   -3.97919869504058
H         2.74375153432214    3.47807142200314   -5.19359642009073
C         2.85585632737733    1.31624203076706   -3.13802703397786
C         2.19365553879494    0.60370241428156   -2.15854700825684
H         2.31162056691802   -0.46733129085880   -2.07023518877727
H         3.50437706969579    0.80334395647159   -3.83128869079917
H         1.64113657993894    4.34490977705217   -2.31073047464482
C        -2.80187879697941   -0.53436059465294   -0.42728658056062
S        -1.43318689481552   -1.38038078329542   -1.10223487119773
C        -4.03755436972268   -1.06005178792012   -0.84541690132027
N        -5.02330055401870   -1.52146434532626   -1.21163820183430

