31
CSD_code = RAXDUR | q = 1 | S = 0 | Stoichiometry = C15H11ClN3Pt(1+) | MND = 4
Pt        0.48810362467294   12.41184623394043    5.19788979166142
Cl        0.17036682791335   12.84703920521309    7.34902771233070
N         0.85498359132792   14.28322017689309    4.58838065270383
N         0.75790887263057   12.04010986345838    3.35689869943648
N         0.19921326525735   10.43215695605752    5.26996602984286
C         0.88112492087918   15.39712017542380    5.31390326264119
H         0.68188478724395   15.28423591856298    6.37253710850492
C         1.14762675992475   16.63860681669522    4.75866091638139
H         1.15675145059245   17.51514390748966    5.38537046644740
C         1.39752678409634   16.72504402217966    3.39745187298227
H         1.60887132549509   17.67594052187710    2.93436436986250
C         1.37226754562246   15.56656269353304    2.63672076927277
H         1.56304239169988   15.60663068534211    1.57689507052466
C         1.09804651783534   14.34910041414223    3.24922220393807
C         1.04460294540901   13.06460536241272    2.53925656102320
C         1.24857944754941   12.81629550535122    1.18544036557244
H         1.48081014674835   13.61471823554908    0.50098274828311
C         1.14684336414285   11.50846210101389    0.72711971378702
H         1.30270772208164   11.29680402996610   -0.31875282881691
C         0.84679593262026   10.47006499984080    1.60034429307255
H         0.76949559049489    9.45961066129196    1.23590921412953
C         0.65110637081038   10.76747846751626    2.94548205791740
C         0.32801003824788    9.84913863677350    4.04509475137436
C         0.15657193028533    8.47832855597093    3.89005488432063
H         0.25955918107557    8.02826169899296    2.91635109271056
C        -0.14786725380313    7.69750493920767    4.99416496369664
H        -0.28428987481698    6.63298224787727    4.88719937271282
C        -0.27281489952476    8.30797443549274    6.23293211963698
H        -0.50810569849528    7.73721594223421    7.11609728040135
C        -0.09101780948981    9.67863956826936    6.32631819693525
H        -0.17910579852722   10.19575702143215    7.27391628671243

