32
CSD_code = RAXFON | q = 1 | S = 0 | Stoichiometry = C16H11N4Pt(1+) | MND = 4
Pt        3.20555502940344    2.02764096198935   14.37559059459256
N         3.20508885604532    3.74866115387655   13.49482351760946
N         3.20446184662918    1.38182859173467   12.48052721378329
N         3.20449084232249    3.18646823140531   16.00804227497184
N         3.20047884906324   -0.73050499444420   15.79788543415305
C         3.20501247377891    0.12795001833320   12.03395853603782
H         3.20507628906429   -0.65246278714449   12.78457812683702
C         3.20560869317331   -0.17974594760000   10.68116105991850
H         3.20602661854405   -1.21039145241836   10.36735475118826
C         3.20551852224709    0.85302277772035    9.75784720130789
H         3.20579644038713    0.64967773726541    8.69872418555608
C         3.20519267266860    2.16152897147194   10.21875088563588
H         3.20525710904829    2.98340545767536    9.52165258121139
C         3.20481181778473    2.40816500264809   11.58520726735349
C         3.20476447758726    3.76497459505595   12.16344547527350
C         3.20441678634193    4.99000721660934   11.50036769943145
H         3.20419949174591    5.04974234838127   10.42516976761962
C         3.20431507867313    6.14950744012567   12.26673014767918
H         3.20407913046047    7.10976076260460   11.77550853986031
C         3.20442083211441    6.09248943539377   13.65539934117180
H         3.20422886873784    6.99928125294157   14.23614181212028
C         3.20475515768426    4.83777655086356   14.26070923429282
C         3.20480283893091    4.51298720461236   15.69934160984202
C         3.20519729267086    5.47684701194431   16.69893774696678
H         3.20526011089506    6.52303716187961   16.44037608825114
C         3.20553978321006    5.08502114514124   18.02974914213360
H         3.20578316530908    5.82492821412579   18.81433499091287
C         3.20562991334001    3.73201954605756   18.32719987072119
H         3.20600425252160    3.38342446838291   19.34659767280455
C         3.20507009560289    2.81493016854193   17.28611920436156
H         3.20511650368005    1.74960120476849   17.47970162055016
C         3.20484016033419    0.28982055005690   15.26796640585066

