31
CSD_code = RAXFIH | q = 1 | S = 0 | Stoichiometry = C15H11BrN3Pt(1+) | MND = 4
Pt        4.60720008437841    6.35748926595181    6.91277082181651
Br        4.16534250948720    4.11471427308785    6.40377200698994
N         4.34248323530544    6.26243782300561    8.91099820867253
N         4.96714111199906    8.18039842578584    7.32637211524315
N         4.98115611907303    7.01427646582575    5.04173745106335
C         4.01615531506259    5.21106195409148    9.65775725816477
H         3.87251296676869    4.26998595062067    9.14243568204613
C         3.86151158036921    5.29243260864797   11.03239048023586
H         3.59617747388008    4.41096343278806   11.59231506140322
C         4.05257178302225    6.51418322655305   11.65887198194894
H         3.93864272258871    6.61272176505083   12.72675729417035
C         4.39418584127197    7.61287713129994   10.88656535611514
H         4.54950439673269    8.57498684267737   11.34617594288968
C         4.53600443610010    7.46923102485396    9.51108412792807
C         4.89526198098490    8.56766083907652    8.60815405736937
C         5.15414743268659    9.89519809420388    8.93554237124429
H         5.10415914278099   10.23614329898903    9.95579097526504
C         5.48084667176713   10.78027225135064    7.91635350593477
H         5.68469273641597   11.81290884957841    8.15066065473847
C         5.54731623719182   10.34791724109673    6.59819704874878
H         5.80101451868182   11.03874186204275    5.81207112131288
C         5.27971898593387    9.01074726591612    6.32091481792157
C         5.28826120247184    8.34053656323089    5.01644474945239
C         5.58282541569253    8.98186351042184    3.81868576781136
H         5.82609146636642   10.03153137942121    3.81567282940218
C         5.56156963875780    8.26405546577571    2.63352851565373
H         5.78817063384349    8.74991722001802    1.69775617614188
C         5.24398886469069    6.91539840720115    2.67663739358572
H         5.21365522335077    6.31798373911158    1.78050160133618
C         4.96149462840074    6.33067349636379    3.90076436867114
H         4.71169564394306    5.27929032596143    3.96402025672242

