31
CSD_code = RAXFAZ | q = 1 | S = 0 | Stoichiometry = C15H11ClN3Pt(1+) | MND = 4
Pt       27.35759452074590    1.64858770867353   10.56862677575151
N        29.35946307799914    1.64847961627700   10.54900416252025
N        27.60159672082955    1.64849338841323    8.68699388193927
N        25.42696819000928    1.64849351017264   10.03912967966299
C        30.19467215231854    1.64849155362743   11.58349365922971
H        29.74026325989785    1.64850361877709   12.56660792611478
C        31.57156445738685    1.64850515724779   11.42599715887221
H        32.21052829820402    1.64852216554155   12.29366383448728
C        32.10010789641200    1.64849306873611   10.14402328302501
H        33.16710718519290    1.64849789991137    9.98644725937821
C        31.23363328544784    1.64847409770054    9.06205333242614
H        31.61840777907211    1.64846812273657    8.05548036801053
C        29.86094518182655    1.64847937478165    9.28198703619160
C        28.85606476397589    1.64849412165955    8.21096529656597
C        29.06000518286410    1.64851489700181    6.83454333481114
H        30.05327301217553    1.64853027447641    6.41823899951919
C        27.95018612372763    1.64850811086533    5.99842483338783
H        28.08880616042820    1.64852106424630    4.92899381454837
C        26.66382765269191    1.64849737941948    6.52386888468326
H        25.80957066577246    1.64848336661780    5.86801971736625
C        26.50999291727303    1.64849473963023    7.90678605881469
C        25.26519642811054    1.64849337344157    8.68613068147917
C        23.99396993921007    1.64849574780971    8.12341707507557
H        23.87863790988846    1.64850748593342    7.05199807570128
C        22.88022217791028    1.64849334595143    8.94864142964199
H        21.88867094413122    1.64848691780274    8.52420695475544
C        23.06437143590617    1.64849684997657   10.32302029548440
H        22.22529337411360    1.64849076577583   10.99908624796857
C        24.35556351197802    1.64850087157430   10.82643225368892
H        24.54432461512699    1.64852163729367   11.89290653589439
Cl       27.07287117937336    1.64847976792737   12.76781115300411

