60
CSD_code = RAXNUZ | q = 0 | S = 0 | Stoichiometry = C21H30N3O5V | MND = 6
V         1.02927417693104    7.12392796655427   16.09519568975858
O         1.71249905173143    8.15115332822607   17.08611419027201
O         1.54525830282777    5.45521677962873   17.14016175596483
O         2.33079730983421    6.99378809734309   14.60127133273130
O         1.02278572990678    3.29301042023141   17.20390671969271
O         2.82408681482377    8.01807045105073   12.69479099582834
N        -0.73735853951079    7.37138104101367   17.30544302387558
N        -0.18490050493688    5.77000488651982   15.14273082059445
N         0.07783289371604    8.41232647102177   14.80047439951907
C        -1.42377660256576    6.08477977104757   17.24942679535343
C        -1.47071865360577    5.55460400531994   15.81574369042951
C        -0.38560009876640    6.24379543406998   13.77591895002958
C        -0.77027553921829    7.72468704981040   13.82334303800909
C        -0.68618200459078    9.28377560837682   15.69040910130453
C        -1.51509036882256    8.46415466855677   16.69680205786042
C        -0.39564194070646    7.67570539214862   18.69792037337271
C         0.51595396337474    8.85534585172333   18.90651061068570
C         1.69624534307998    8.92226812084690   18.13285805131060
C         2.75209376707029    9.78012425102784   18.50798729530939
C         2.50397133136137   10.67854457245395   19.53790327014540
C         1.29490631986950   10.70374860114361   20.21266689316235
C         0.31921736290694    9.76222400696704   19.93144328351863
C         4.11684324485252    9.60651055867961   17.85883967743166
C         5.16040186094238   10.55730900660590   18.45275670506228
C         4.04274276084764    9.84531435197924   16.34519621530958
C         4.56711420852164    8.15806287476018   18.11423670085914
C         0.62473376812492    4.55143633973127   15.18013394167065
C         1.11616057602823    4.37499673368194   16.64921884294877
C         1.20026619196507    9.05484883661148   14.13470336127944
C         2.23181369023546    7.92934246719991   13.75191034855937
H        -0.85301339456606    5.38079120062097   17.85880251646178
H        -2.44449179678111    6.14892011995141   17.66076710600139
H        -2.26878335505053    6.05461316772854   15.25756104550316
H        -1.72044482971603    4.48542143175479   15.84848987177778
H         0.55236777070549    6.13335198589981   13.22671643434438
H        -1.15600210401392    5.65987752557856   13.24577450623065
H        -1.82146544509657    7.83447320240314   14.10569004351757
H        -0.65511158410623    8.16432393872880   12.82395778062027
H         0.02330169560974    9.90488419381270   16.24520734088698
H        -1.35718118824542    9.95215822665256   15.12688674535446
H        -2.39595589252301    8.04927357238315   16.19924529356015
H        -1.87604650512243    9.14848793834569   17.47504152299367
H        -1.31380177234408    7.81109068891020   19.29188742347066
H         0.14632788498799    6.80282802281556   19.08349483516287
H         3.26798025950203   11.37678883961874   19.83553632638072
H         1.13359152184724   11.42891570750441   20.99528677702791
H        -0.58405296447113    9.72057977854726   20.52281041674394
H         4.90019245791319   11.59643127554066   18.26267836629534
H         6.12455950037914   10.36256562845916   17.98925149327768
H         5.26786071131838   10.40336312532584   19.52367843729394
H         3.53650055159928    9.01501463547390   15.85631122939353
H         5.04681615586800    9.90493264149227   15.93220253522337
H         3.52900731152500   10.78109533657854   16.12474440887864
H         3.87479362243591    7.44312241481281   17.66475961206942
H         4.62520815772096    7.96230254572928   19.18338765732312
H         5.55021237338624    7.99851886229659   17.67804450906503
H         0.07384491809594    3.66876799966843   14.82421321526335
H         1.52565249516647    4.69573457051728   14.57650830692393
H         0.90561180123454    9.60908846796484   13.23301737260101
H         1.69526722651279    9.74292501055061   14.82332873850419

