34
CSD_code = RAXQAI | q = 1 | S = 0 | Stoichiometry = C16H13FeN2O2(1+) | MND = 8
Fe        2.89069988609843   -0.10321663833168   12.23473869425171
N         2.49786736223458    2.66563357858428   11.16127157799057
N         2.07786671013648    3.31217488441692   10.04928824822332
O         5.05092161294426    1.32200555089198   13.52404636014607
O         4.92037960221898   -0.85781865747903   10.32419910082056
C         4.16116510140498    0.81770525854851   13.02178940981844
C         4.10907199705805   -0.57936280042874   11.07032338010322
C         0.78019789515563   -0.38194817057837   12.93645751574174
C         1.63704567928468   -0.52128512330091   14.04466395042204
C         2.50348570354838   -1.62174568937072   13.79406230351488
C         2.14910028444338   -2.17926530252079   12.54266785935898
C         1.11291384588268   -1.39280776021116   11.99067614727644
C         2.38551105998675    1.33743700726694   11.00522046466799
C         1.85038813203044    1.16176543798993    9.71239443828001
C         1.67008694375964    2.40412197222802    9.15349451264695
C         2.96375692694760    3.39283896275159   12.28072893663416
C         2.41762518090473    3.14097696284727   13.53400346601375
C         2.87877144563650    3.84848547368875   14.62937840413633
C         3.87096500136872    4.80349109520375   14.47380330149538
C         4.40195271572364    5.05947345218403   13.21988546053204
C         3.94975069372648    4.35815362772151   12.11570498329950
H        -0.05894427407044    0.29064496344943   12.86113464685230
H         1.57314688017793    0.02282488715570   14.97239848488104
H         3.18702307327268   -2.05411383981019   14.50567670951306
H         2.54594389226928   -3.08798591805134   12.12177607446640
H         0.54500698988426   -1.63094622463453   11.10738455249778
H         1.63677476824456    0.22228621386521    9.24687020856754
H         1.29172813997109    2.68821554579984    8.19177333617364
H         2.07315936927558    4.31997695265775    9.98379794511620
H         1.63438520482536    2.40633340216358   13.63266744485025
H         2.45875271346614    3.65893086995544   15.60443313829916
H         4.22984229675628    5.35101703117229   15.33061359649972
H         5.17398206522999    5.80262973345226   13.09963912117742
H         4.37717510020215    4.54027326071885   11.14073622573163

