100
CSD_code = RAXSIS | q = 0 | S = 0 | Stoichiometry = C41H46BF3N6O2Zn | MND = 4
Zn       -0.10068269915059    5.31734117594531    4.74352009056495
N         1.81476179063977    5.03779049437728    5.20600280593851
N         0.20204917301969    4.96683311321559    2.83202473480285
N         0.20341346260108    7.25919499585430    4.69248783937615
O        -2.28927934206060    5.38159697959652    4.71740061276075
C        -2.16001538260313    4.49942864764397    5.55962043109321
O        -1.07959422110387    4.03598245054201    5.95664949667410
C        -3.42468466776337    3.90081305683366    6.22792042408452
F        -3.39595897136880    2.56197742086689    6.24412146194197
F        -3.52658575864623    4.28691384210683    7.51044119573151
F        -4.56168819177132    4.26100386775685    5.62696018318225
N         2.64223900064934    5.58861691944546    4.30056326683940
C         3.89174224625987    5.12832808991438    4.49373437938276
C         3.86018035596602    4.24883911444316    5.56130839086643
H         4.68488711169420    3.71461120055031    5.98666487676824
C         2.52820056996997    4.22697455195819    5.98598447630323
C         5.05971144299031    5.52986769688792    3.66725675997474
H         5.95310380876803    5.03307436552490    4.03514996119210
H         5.21045575405173    6.60669195298417    3.71170335099029
H         4.90510642432127    5.25252046855918    2.62613716767160
C         1.90591050251051    3.50594985548700    7.08964812445815
C         1.01122908124170    4.16416312342907    7.92834415469365
H         0.84050757404084    5.22153937852010    7.78916674728426
C         0.36227180678339    3.48103847283949    8.93485442012665
H        -0.33909058479799    4.00993841967423    9.56252005021341
C         0.59035000906813    2.12452572059284    9.13747470840980
C         1.51282333874445    1.48148018141545    8.32183932674548
H         1.71187647463867    0.42905641793197    8.47117614852129
C         2.16759161339238    2.15884170086977    7.31046026678224
H         2.86416320782509    1.63728703480036    6.66976908232783
C        -0.15480787855766    1.36212452951653   10.20432441358141
H         0.18903484563695    0.32149735658217   10.18549230507080
C         0.13495291559111    1.93253811228026   11.59439214934453
H        -0.22439747808969    2.95512911591399   11.67550618679167
H         1.20515085233065    1.92798631430351   11.79103242722543
H        -0.35980902690613    1.33444582229293   12.35673482860753
C        -1.65705086207446    1.37495336199040    9.91165779135513
H        -2.18918741160169    0.76713364966975   10.64061889870914
H        -1.85191306602230    0.97838411703686    8.91787058599153
H        -2.05084902452846    2.38710126200967    9.95339290566880
N         1.17500298196680    5.73006332706048    2.30408279732003
C         1.12322647938420    5.66690984774453    0.96256433093061
C         0.07226033006086    4.83644844386589    0.61803980800637
H        -0.23731662447414    4.55849271864403   -0.36849783232251
C        -0.48264789880470    4.41342718531046    1.83053052646791
C         2.05833991885926    6.39123527961382    0.06304698664928
H         1.84071082851690    6.13496308335303   -0.97003028531239
H         3.09009969045922    6.12596254709568    0.28431455104826
H         1.95233967795662    7.46738431138645    0.18782950504412
C        -1.60600815587792    3.51589668094360    2.05704523598666
C        -1.58910130576955    2.60108070520969    3.10721718753935
H        -0.72077327496847    2.53878140035351    3.74943040514423
C        -2.66353447655481    1.75916028820533    3.31644031427093
H        -2.62838320242338    1.06085758963902    4.13872120699049
C        -3.78166171172389    1.80480238437442    2.49020695771033
C        -3.78789517481674    2.71478534714291    1.44022023618024
H        -4.64779053095163    2.76704795718350    0.78692020474949
C        -2.71667515280508    3.55776760437814    1.21975123415058
H        -2.74542078455008    4.26923184842263    0.40764605527580
C        -4.96216352661339    0.89369000000737    2.71574900123248
H        -5.70261382096759    1.09737559123092    1.93355769788940
C        -5.61115503413813    1.17526142441461    4.07219443861602
H        -5.88604649739788    2.22480987364762    4.14919652243082
H        -4.92643990178061    0.94137385279701    4.88267326359736
H        -6.50788863816257    0.57080147558301    4.19229351425471
C        -4.54717233780760   -0.57518770926784    2.60681450382959
H        -3.83817383436257   -0.83421493482044    3.38878480129811
H        -4.08175029126960   -0.76814862864067    1.64232160838147
H        -5.41817686360527   -1.21933927574224    2.70648620103504
N         1.23109448161073    7.61772924227580    3.90488667413811
C         1.25571730530837    8.95684773494375    3.78017230433373
C         0.19974750735279    9.47146557345753    4.51122373137936
H        -0.06023226012646   10.50259344672808    4.63607232429312
C        -0.43802557550086    8.36216100160037    5.07558684091058
C         2.27005793088457    9.69726176472512    2.98557166157063
H         2.09942010008629   10.76568570541385    3.08389423412241
H         2.20729222731660    9.42668921868248    1.93320810938989
H         3.27439878119765    9.46533868924806    3.33412335867027
C        -1.59960436289605    8.29197941532287    5.95011167814656
C        -2.70046583285153    9.11899242897206    5.74835176872984
H        -2.68533803002164    9.83736706124950    4.94176319584656
C        -3.82044336807066    8.99666773057757    6.54602618301486
H        -4.67261864724105    9.63201309219714    6.35516642574772
C        -3.86938677603022    8.06197635920568    7.57434196509386
C        -2.75262466875016    7.26508806241243    7.79462448817149
H        -2.76547987045178    6.54214962609585    8.59735985095518
C        -1.63423514841623    7.37031307213019    6.99205811501413
H        -0.77216951755575    6.74439323515162    7.17896468375153
C        -5.10695345050851    7.88638952970401    8.41753915335950
H        -4.88949086771546    7.13738860209637    9.18670228343777
C        -6.25629180851859    7.35996379017138    7.55446742104268
H        -5.96343126940558    6.43734220640680    7.05908146340718
H        -6.52885393523166    8.08497229533484    6.79141927339459
H        -7.13064571671884    7.16193784616593    8.17079295820596
C        -5.50042745735267    9.18928024962284    9.11600838907470
H        -4.67301189696557    9.56356002557174    9.71518186797434
H        -6.35317340642994    9.02070484644256    9.77012492576326
H        -5.77253862795207    9.95260745962513    8.39146324804086
B         2.10232260310975    6.54446805696985    3.22744740280068
H         2.98158189265384    7.03773806749451    2.61838561333618

