89
CSD_code = RAXWET | q = 0 | S = 0 | Stoichiometry = C43H40O2P2RuSi | MND = 6
C         0.62230613621176    3.90992610761790    5.09409036328479
C         0.44636039949779    1.52266086180959    6.35216976089610
C         3.41455014368071    3.77857164273123    5.23366727038042
C         4.40029134125290    4.38581543161079    4.86039860354164
C         5.93641266641594    7.02496871611606    5.10296666490251
H         5.07453920657340    7.62382095372876    4.82315346548549
H         6.82744581050012    7.58062048996984    4.82433206308660
H         5.92987974789221    6.93087088441852    6.18543282809498
C         5.78160346105817    5.49415153947130    2.37382694923465
H         5.68529011162130    4.52181077567139    1.89828864497875
H         6.66544343091337    5.97688306291881    1.96625299000461
H         4.91920702071193    6.08674334692201    2.08229953223864
C         7.46595718476069    4.33500763408885    4.72055209945066
H         7.55191406903411    4.20854147748564    5.79559967878983
H         8.36246390291528    4.84172493114071    4.37412310139327
H         7.44839431690838    3.34611077312391    4.27207138760901
C         1.33138981021531    5.54979812604126    7.76117771879736
C         1.89299056900476    6.36268146363028    6.77843795812175
H         2.62075053503835    5.94007145365219    6.09473853644297
C         1.52627742502959    7.69125780009509    6.68167243157576
H         1.96368785880595    8.31472656250341    5.91576881171833
C         0.59790057135711    8.22169058967314    7.56351135282789
H         0.30498031346938    9.25831093167350    7.48422247692157
C         0.04768758687428    7.42082411115796    8.54938443741004
H        -0.67143131875087    7.83272953010419    9.24285960173301
C         0.41415354163061    6.08991562876263    8.65541908096477
H        -0.01910079406562    5.47642630041088    9.43328152870671
C         3.51655400910306    4.09885491662327    8.64521649950567
C         4.69054700696087    3.52025439416446    8.18324083474063
H         4.66377722489961    2.89371126662003    7.30377943791019
C         5.88519394522765    3.76381522310436    8.83930222433087
H         6.79733343013033    3.31413923595071    8.47528827776471
C         5.91326831179803    4.58050703698118    9.95640141935956
H         6.84649628965084    4.77133512117403   10.46599590857997
C         4.74127466988656    5.15712559201390   10.42251036350183
H         4.76120288722989    5.79402995032672   11.29502943238310
C         3.54664887920522    4.92122911774753    9.77043434954634
H         2.63204073502571    5.37228487607404   10.13151566071256
C         0.90556920628358    3.06505484574920    9.11221769840067
C        -0.47539259946973    3.04282902918363    8.91739433223206
H        -0.89434049017134    3.52524908546246    8.04032221870741
C        -1.29813041675247    2.41295464779248    9.82991945145085
H        -2.36751772532060    2.40417114253430    9.67715740631039
C        -0.74795019390379    1.78324337168075   10.93635798952025
H        -1.39039756026419    1.28546272525155   11.64760018478116
C         0.62377757233533    1.78270149882973   11.12237108264993
H         1.05257904290652    1.28058698756968   11.97744505928217
C         1.45272781931911    2.41854262059926   10.21355074311372
H         2.52461690941909    2.40980523628308   10.35456272460003
C         1.47097751607130    0.04786445228497    3.48309982053822
C         0.08993366609231   -0.06842658273746    3.63864939828309
H        -0.49521749188655    0.82095860540220    3.84711648931244
C        -0.52472764013254   -1.29902761380968    3.52105374274025
H        -1.59513545542293   -1.38211900099819    3.64008553255198
C         0.23633778459846   -2.42825094464572    3.25755820728651
H        -0.24212715650972   -3.39273765271670    3.17264302657818
C         1.60804791342888   -2.31936922851760    3.10809204225443
H         2.20072123693832   -3.19961666894970    2.90552366066077
C         2.22863681505979   -1.08613646096445    3.21935787785767
H         3.30024767541273   -1.00465957732390    3.10376436066920
C         3.92124792846526    1.46372701403024    3.18837878113283
C         4.86465855089735    1.05223134448481    4.12455239607682
H         4.55799835897452    0.90404872849107    5.15050534537031
C         6.17779023241813    0.84480874874894    3.74764645097966
H         6.90398418076578    0.52424063169072    4.48055068845110
C         6.56344993158338    1.05238612323183    2.43289702877923
H         7.59182894987574    0.90096322589710    2.13867027762396
C         5.62746644945064    1.45620524409390    1.49614743200271
H         5.92417129376018    1.61618827315924    0.46951275504395
C         4.30930992800386    1.65725806875776    1.86683836693474
H         3.58620040134788    1.96943667655783    1.12700732869298
C         1.52220012548539    2.64492650222346    2.31112925662590
C         0.69040388647790    2.10281558464269    1.33816064880320
H         0.40740888282292    1.06057733459282    1.38040189844572
C         0.22401118403113    2.89951788610447    0.30569917319485
H        -0.42663797520468    2.47325545390433   -0.44426715816026
C         0.58880705514838    4.23254576848514    0.23079365532265
H         0.21967587693262    4.84919932260746   -0.57549178475100
C         1.43130939796396    4.77283597840822    1.19030468324401
H         1.72438429336989    5.81074812885092    1.13089939361131
C         1.89543913976652    3.98615209490021    2.22645939490989
H         2.56085141913127    4.39744818256910    2.97679253223843
O        -0.17165338247544    4.63808987904338    4.69551073495580
O        -0.37349191801556    0.80606126059341    6.71690783738616
Si        5.88557002942386    5.30503912520986    4.27243649867000
P         1.92190157989559    3.81900064879790    7.80378880802686
P         2.19348355180838    1.70337661566579    3.72598488805352
Ru        1.80164601732612    2.66612086653364    5.80033216647434
H         2.78216576458122    1.61656691160949    6.42419372517088

