38
CSD_code = RAXXAP | q = 0 | S = 0 | Stoichiometry = C12H17B2ClN2O3W | MND = 9
W        -1.95177265288153    1.71484666711661   -0.13428579068417
Cl       -5.17216960803748    3.17417117125703   -0.47955639827571
O        -1.35443972077020    2.21227880652900    2.88018100133500
O         1.04983327676868    2.51285859731128   -0.20335156688004
O        -1.92008337574987    4.44072890376904   -1.64682684642118
N        -2.46416163580394    4.72412389883716    1.47991801077306
N        -5.39378818822812    2.57027717591772    2.15790507290976
C        -1.66048927584296    2.24824521811089    1.74471362689136
C        -0.06477309752299    2.21431911950072   -0.18557155157383
C        -1.96458459844631    3.43687470430105   -1.08057016860732
C        -3.33353959465907    5.84538575683161    1.78215312533670
C        -1.07938489293138    5.15086114174704    1.45260026327373
C        -4.96749716557133    2.40916238533090    3.53330650257661
C        -6.77830486705923    2.18290435363563    1.97615799830791
C        -3.76502999749700    0.18848435254391   -0.13374693899998
C        -2.63004659307636   -0.45505510570685    0.43202360453885
C        -1.64709204356266   -0.55851471022392   -0.56972043710646
C        -2.14468021911557    0.07490253124738   -1.74613058635213
C        -3.47029317029891    0.50190622446158   -1.47029783368000
B        -2.93053143560824    3.44078696738920    1.24762014664250
B        -4.54414459000560    3.04257022627973    1.16948811730300
H        -3.21431461134816    6.62355985803822    1.02449938311470
H        -4.37088165088210    5.52264228345162    1.79529416460800
H        -3.07850183773134    6.27207255637964    2.75578428173916
H        -0.94152335963141    5.91889795519672    0.68713180879944
H        -0.79906096056770    5.57260406744335    2.42159459544301
H        -0.42229922984509    4.31393912903991    1.22735406871992
H        -5.09411512332188    1.36981442661265    3.84808781512381
H        -3.92103013017136    2.68242847305764    3.63582834824030
H        -5.56865995427215    3.04061737372126    4.19304552886694
H        -7.42683776436029    2.79361371108692    2.60956906424452
H        -7.06537295552202    2.32131420426775    0.93713231873568
H        -6.91825838363283    1.13402538084549    2.25277209012146
H        -4.73287615942632    0.27917670027940    0.33966572018595
H        -2.59989542778126   -0.93832536365712    1.40057786020873
H        -0.71245400602364   -1.10045372783788   -0.49426634157781
H        -1.69011239713880    0.01704054159481   -2.72845809403013
H        -4.16533260244312    0.90221404429275   -2.19512196385423

