50
CSD_code = RAXZUM | q = 0 | S = 0 | Stoichiometry = C19H21N7NiS2 | MND = 6
Ni        2.30381375979999    1.53829881216228   10.47177396420682
S         4.59443263878685   -0.86990795161484   13.28577928775276
S         2.88970012600738    5.63420875308846   11.70033214148363
N         4.42932604270768    2.20889542516965   10.07255808348198
N         2.04363624361283    2.65199431344511    8.94771038390256
N         0.01401896665464    1.09026639634847    9.92322150014982
N        -0.01263671540210   -0.88385532728712   11.36962173120800
H         0.87858790937158   -0.64601025226673   11.80804197040127
N         2.36212371552069   -0.16840915949485    9.46755202951866
N         2.63484650184094    0.56042043897761   11.97342761606451
N         1.99874555515731    3.02717594584700   11.53126235302999
C         5.52834384793438    2.12190491459727   10.80379075963743
H         5.59295267065692    1.26924067564212   11.46742159661114
C         6.55196243721734    3.05954810264333   10.74835782318729
H         7.41812386547863    2.95174724921389   11.38134223882282
C         6.43702268043197    4.12297504377885    9.86749943575709
H         7.21447906767663    4.86844371786115    9.79496335905991
C         5.29727321156246    4.21881935231853    9.08721669447349
H         5.15597496152408    5.04020503081993    8.40184714836261
C         4.30707205281635    3.25141080266579    9.23392568793619
C         3.02967370453738    3.34958382572416    8.54923864939597
H         2.93317779630917    4.07895805128927    7.74225704050375
C         0.74110203494611    2.83049458816465    8.37298959020917
H         0.79636765754756    3.13053977279526    7.31807648832618
H         0.24132583225784    3.62936696485007    8.93387382659154
C        -0.05595458207955    1.53267022814938    8.53232225392903
H         0.38750388608220    0.77056466120031    7.88435702140556
H        -1.09499817972866    1.69037832355304    8.20679195144678
C        -1.08657862569854    1.66560185684457   10.69643110374668
H        -2.05622622165964    1.35485091527663   10.26621779822031
H        -1.01303337371292    2.75322252092613   10.64126118138818
C        -1.00154957306566    1.21469051511590   12.14770770591409
H        -0.03913955657315    1.53825055554711   12.55283970865687
H        -1.80700901962653    1.66356105042953   12.72844117318527
C        -1.07671727352190   -0.30908255331861   12.17417727788322
H        -0.97362480683739   -0.69641238972981   13.18832841529379
H        -2.03494513679974   -0.65118625371852   11.76608102481841
C        -0.00114655428105   -0.38342786603423   10.01700570394028
C         1.26539422315157   -0.92613032204462    9.39117450081344
C         1.28945117976353   -2.20191174301899    8.84468657608748
H         0.38146672002033   -2.78278224030692    8.81645354655474
C         2.48301379464714   -2.71021427728122    8.36413223175902
H         2.52936128097177   -3.70314894280147    7.94341383595861
C         3.61569028050358   -1.91576655287707    8.44042639945201
H         4.57016782360445   -2.26657314556863    8.08195986732059
C         3.50656419504984   -0.65467865519347    8.99891321121727
H         4.37159876031726   -0.01016095846671    9.08057181561909
C         3.51834622874546   -0.01543237374417   12.50543650278514
C         2.42137606185588    4.12648464284354   11.59726517526464
H        -0.89365809608221   -0.79098248252087    9.50102261726626

