54
CSD_code = RAYBIE | q = 0 | S = 0 | Stoichiometry = C24H22ClFN4OPd | MND = 4
C         3.14703761803542    5.95040570102119    3.21714015715401
H         3.74401669196197    6.29821844390546    4.05419890259884
C         2.22381938455906    4.92891349182917    3.37053734666664
H         2.08597232421600    4.46540436251100    4.33469128712211
C         1.50590260851269    4.50593937014502    2.26383386126138
H         0.79153370414669    3.70064209718678    2.34520777804133
C         1.73152736637730    5.13189542664213    1.04641455566774
H         1.20472015369572    4.82709966607175    0.15614110453542
C         7.15309638065190   11.49471263174142    0.20584637012005
H         7.45083063456162   12.46196904375200   -0.14456131482261
C         7.76050774549104   10.29151608845057    0.07714197817594
H         8.67815847644223   10.02515748865349   -0.40527578768016
C         4.93110389387379    9.27642689500884    2.01358041987247
C         6.81913732062426    7.96910800775564    0.42505601384105
H         7.78136298890141    7.45890961833882    0.32221725638885
C         5.89748369696278    7.82372318490799   -0.76040923457123
C         3.64591410515703    6.48908300873088   -4.27384051390876
H         3.13058169573438    7.15758480952218   -4.94872772087882
C         3.48193421533176    5.12026327769962   -4.39830142990825
H         2.83969786375607    4.71648981766550   -5.16731447446661
C         4.14693178827630    4.27093213041225   -3.52809812923570
H         4.02136767359640    3.20113062759970   -3.61410132378589
C         4.96904822741974    4.78493848560256   -2.54505313631666
H         5.47404138831976    4.12833113658845   -1.85169179129366
C         5.13701700929470    6.16371365399549   -2.42064059444573
C         4.47042750524649    7.01623053496125   -3.29598385248873
H         4.59201146706864    8.08207063329205   -3.19611577733913
C         5.87980690923735    9.98969940507789    1.19324884359558
C         5.00647285141433   12.31048399685088    1.22902926926587
H         4.04073471878245   12.03872430064590    0.79110272152386
H         5.33184908032345   13.25537907762376    0.78264688332048
C         4.86994665555134   12.46695252120822    2.72572104797867
C         6.00469623231089   12.49600237018562    3.52827850367854
H         6.98291961828702   12.40387249715871    3.07973784431882
C         3.61746892138531   12.58381052156855    3.31350864602498
H         2.73092943930015   12.55958754630312    2.69752092037645
C         3.49091771908942   12.73121786849362    4.68294959846951
H         2.52409768265469   12.82279880962041    5.15136275345836
C         4.63634545537560   12.75342467826672    5.45749433288757
C         5.89662134999114   12.63639002889870    4.89916742730477
H         6.76883779503438   12.65692482643163    5.53275528006252
C         2.66636801996047    6.14978264488729    0.98244387055803
H         2.87363956243426    6.66742978144611    0.04360652179713
H         5.35968296939133    9.12222698548065    3.02455012276517
H         3.97356195888301    9.79152846496116    2.10065863533492
Cl        5.76823248012312    5.02701382138582    1.14694173312543
F         4.52197458481337   12.89275494872285    6.79203100158257
N         3.36156354001044    6.54926887937698    2.05035187521990
N         6.95948470346151    9.36507813276850    0.69589021898666
N         5.97759290254672   11.30339290029202    0.88892581991695
N         6.00605916753000    6.63139101022471   -1.42961206993298
H         6.45333432315162    5.88311713146650   -0.89816112445322
O         5.15724590411629    8.74421282297315   -1.11063522572632
Pd        5.16533152663040    7.28112439368473    1.41779259822800

