101
CSD_code = RAYCEC | q = 0 | S = 0 | Stoichiometry = C32H53B10O2P3Ru | MND = 7
Ru        3.27772606160900   12.34395531073149    1.17997716901767
H         2.74170881896709   13.32320669731896    0.13380248930199
P         3.41400432990775   13.97449928664187    2.84867201561720
P         3.85756786949612   10.85319554011859   -0.50759155453312
P         1.11902570467206   11.64939000992583    1.57847582684201
O         4.88257466382414   13.70336851230898    3.53294113464614
O         5.44096112637487   10.50642010321163   -0.22415195087213
C         5.79746754531660   12.92724549201830    2.80746954143028
C         6.09048906310645   11.20918753082761    0.80031221002300
C         2.43977715980577   14.00679230390436    4.46007156791822
H         1.43640938137363   14.35631081021323    4.19360423960715
C         2.33981593153654   12.57790592936294    4.97825413253957
H         1.88082156800937   11.93803080408674    4.22611506564186
H         1.72497271111175   12.53163591539872    5.87622760086341
H         3.33000761227798   12.19238636953562    5.22079929202734
C         3.00433238531723   14.91179765666732    5.54915589387995
H         4.04599008957455   14.66959275047995    5.74597874765822
H         2.44101492321451   14.75722176359521    6.46955816375384
H         2.92046155140904   15.96083379394345    5.28167057837977
C         3.46860863087905   15.82788814245561    2.48370157478480
H         2.52377994615353   16.21862012396447    2.88128476751156
C         4.64208975262143   16.54797638727234    3.14666947665700
H         4.79440438729985   16.23874526342648    4.17462897540470
H         4.46833049995247   17.62327200164136    3.13018077594451
H         5.55849158169153   16.34661675813016    2.59932165600252
C         3.51214830568765   16.09564087208228    0.98313227593303
H         4.40491866742730   15.65256861170639    0.54658410318289
H         3.52509219141694   17.16849949559422    0.79635349844508
H         2.65013447777493   15.66642176011673    0.48188579508091
C         3.31588209354320    9.06626497144819   -0.74610722561793
H         2.28449795328960    9.09874802925919   -1.10782462463264
C         3.33553791725413    8.37905479488007    0.61473993053914
H         4.35347178027711    8.32723633355812    0.99896447097962
H         2.94703930942454    7.36335809177614    0.54371524115380
H         2.71772393622122    8.92626279513303    1.32584923670536
C         4.18080768082248    8.29535814564420   -1.73850612093106
H         3.98596607405465    8.60135083050394   -2.76279872581234
H         3.96180670684797    7.23055624739059   -1.66229350206208
H         5.23566141639188    8.44302047309421   -1.51938526931511
C         3.89109917244969   11.41561338642696   -2.29009504993332
H         4.48148827966063   10.69284988167023   -2.86211538415055
C         2.45895000921964   11.47276962247522   -2.80650051128897
H         1.99308671607085   10.49045134912772   -2.83444625232612
H         2.43418311266373   11.88823804964431   -3.81266144116700
H         1.86893425716280   12.11406968047382   -2.15286425154776
C         4.53970074977303   12.78709898999843   -2.41687448406459
H         4.03939350406833   13.49490679548625   -1.75800294494984
H         4.46299562439862   13.14441470260362   -3.44253163623413
H         5.58977755581821   12.74507565592444   -2.14648310315715
C         0.56745704896011   10.21448704144466    2.60806150297824
C         1.46287144977588    9.54054822173746    3.42843075653992
H         2.49938386408935    9.85071200621119    3.47214504597287
C         1.05321419632705    8.46702285709733    4.20141516481605
H         1.76674323190796    7.95574739999852    4.83111706372304
C        -0.26550928692929    8.05234480101607    4.16350723921114
H        -0.58890958287783    7.21468135051303    4.76362914948834
C        -1.17100737591612    8.71656684831851    3.35012580129270
H        -2.20301194337734    8.39794010822188    3.31731656541711
C        -0.75986965271481    9.78670117134359    2.57933549555931
H        -1.46983092341926   10.29722389397994    1.94302036529631
C         0.04513243911137   12.96032106784871    2.30677604544538
C         0.20882530758217   14.24021542815502    1.77985040258105
H         0.94441840037638   14.38406004867344    0.99902414653431
C        -0.52239234071182   15.30909489313535    2.26123313141880
H        -0.38955769173304   16.29120096701249    1.83052358255292
C        -1.41316771838590   15.12172180668585    3.30624114056518
H        -1.98167631047660   15.95436180822691    3.69389464674984
C        -1.55567903648261   13.86290780532419    3.86255632363308
H        -2.23177374804458   13.71270638175462    4.69217774563762
C        -0.83559400855561   12.78754928203922    3.36842333252907
H        -0.96009065372984   11.82032646550230    3.83214115706039
C         0.12353871667297   11.23928761079308    0.08273701767776
C        -0.43082559342235   12.23656845548030   -0.71215121136732
H        -0.34784046734185   13.27009278835895   -0.41305750555361
C        -1.09831501924251   11.91660027320085   -1.88097289234271
H        -1.53128398081710   12.70297331211449   -2.48212168101447
C        -1.21189931356667   10.59680173552905   -2.28302650502057
H        -1.73220649058216   10.34803712938679   -3.19615067154445
C        -0.65465797105268    9.59657686565180   -1.50435396361582
H        -0.73889148946867    8.56247265336741   -1.80849150463560
C         0.00870339206100    9.91457968599204   -0.33373848396284
H         0.42223324006997    9.12140740968874    0.27396751060685
B         5.41240911175678   12.75835117709926    1.12784082964663
B         5.24878701685086   11.43295653085742    2.25294981273437
H         4.07404023752016   11.09252014959034    2.41126806503279
B         7.02292757421048   12.56164364560398    0.38426918827681
H         7.19346651062687   12.80572742067255   -0.74999175211225
B         6.82009729934988   13.69043530787766    1.69132950101462
H         6.81784941999855   14.86155265897911    1.62316111298002
B         6.61934809188840   10.35073423771001    2.20622775874776
H         6.45371260198235    9.18778854514294    2.24370915137787
B         7.75382106520018   11.06107339013691    1.03728704227507
H         8.35436915526687   10.35618497965156    0.31662517880233
B         8.26633777239080   12.65183126615124    1.64908118712106
H         9.33515609256057   13.08800621354182    1.43082267564736
B         7.43693828789020   12.92447265184210    3.19436076849656
H         7.79708043976554   13.60486482385866    4.07998719652064
B         6.42735755100591   11.50097907388910    3.54496109210851
H         6.09709523894644   11.25860579080916    4.64648715380347
B         8.01000525261332   11.28238919976236    2.78917875747534
H         8.90663980487925   10.77621853986014    3.35529595095765

