71
CSD_code = RAYDOK | q = 0 | S = 0 | Stoichiometry = C25H41NOSi2Zr | MND = 13
C        -7.40816837214443    4.08721991579105   16.63840976060894
H        -7.30719035235537    5.15463979455497   16.79394063180711
C        -7.02334690997617    3.07615312606136   17.54576491159029
H        -6.59987601424342    3.23231816730979   18.53361556107355
C        -7.48052506071167    1.84169208904144   17.03283530267131
H        -7.48540272098245    0.89778952954533   17.56676755222948
C        -8.12135329840388    2.09027229965787   15.80156905656400
H        -8.67277295744733    1.36479500308410   15.21637935888040
C        -8.08102567637861    3.48047032535909   15.56463241613873
H        -8.55432893811925    3.99895010086451   14.74069625421548
C        -5.64761980429183    3.64163928619353   13.50718815129859
C        -6.19658355909255    2.46235184697977   13.35757062095527
C        -4.55023213190256    0.87167188778464   16.99177189358014
H        -4.81580573088562    0.70902297161786   18.03058853136285
C        -3.49421668611254    1.68335748076536   16.53825201106475
H        -2.82368067443596    2.24713749917028   17.17759937974117
C        -3.36107593403646    1.49266917990307   15.14588127734984
H        -2.56101344396176    1.86771966430498   14.51991208015598
C        -4.33755445030396    0.55912034321967   14.74066926385622
H        -4.41313875706803    0.11810068968760   13.75555762751723
C        -5.07785151996121    0.17948123337156   15.87987201857142
H        -5.81466211073648   -0.61476785679746   15.91736363459963
C        -6.31692282897509    1.47361565736443   10.35181410157466
H        -5.29374755840075    1.11701154508498   10.41905166727306
H        -6.28559287087426    2.46973206931833    9.92251963859700
H        -6.84658243117333    0.82823131480366    9.65749321454071
C        -8.94801339002085    2.13651045920697   11.87096222257362
H        -9.53204669260598    1.48089529588345   11.23145506579751
H        -8.96242525818675    3.12692052571622   11.42941107090670
H        -9.45450066612271    2.19891505934998   12.82898336121186
C        -7.26891684213794   -0.32327793465535   12.69872967740622
H        -6.38425911257163   -0.89559228077435   12.43573626212618
H        -8.12283013680007   -0.83704450879771   12.26704262316057
H        -7.37271048966324   -0.36001169890580   13.78146826777495
C        -5.62980461797884    6.64809390962015   13.92523387011640
H        -6.32207959986379    7.44279691054008   13.66487710108082
H        -4.65416575112507    7.10421480516735   14.06289582057380
H        -5.94264848119501    6.23711968309023   14.88299071404469
C        -7.11743429496526    5.58697452029857   11.44619925463236
H        -7.06563490460349    6.56338771009545   10.97237629314690
H        -8.04478703975893    5.54207146767264   12.00914756506703
H        -7.17526683209666    4.84119725174778   10.66016540155010
C        -4.04887439798227    5.46897239376613   11.48306607233329
H        -3.93409333445895    6.49879932057590   11.15743407016605
H        -4.12835018198422    4.85164164268078   10.59424172573080
H        -3.13598646850966    5.18177933478806   11.99470720930042
C        -3.59468914110178    5.02891004523979   16.08870256646110
C        -2.60601463818127    4.90212562228317   14.96097293105444
H        -2.53136714649298    5.85478063591168   14.43052571737205
H        -3.03878154148827    4.16399253841222   14.27469198060377
C        -1.20126287731888    4.46309121452576   15.39557545811023
H        -1.27848709345301    3.66825546850068   16.13852810987353
H        -0.68292629903261    4.05094632817564   14.52737600463528
C        -0.36027506300078    5.60811222634420   15.95386560363101
H         0.63740578656005    5.23017459300399   16.18750147833028
H        -0.24693813999193    6.37869521668184   15.18724256362861
C        -0.95258581352103    6.24124961221217   17.20999562219453
H        -1.08402046181268    5.47994019557685   17.98122005474306
H        -0.24865243971207    6.98363492774626   17.59073094827545
C        -2.29812047094426    6.93118090046740   16.95618541168355
H        -2.47123399469123    7.68363524920878   17.72752816830908
H        -2.26710789432781    7.44829905956164   15.99123180749381
C        -4.33061972290120    6.14802736322552   18.11247649890350
H        -3.78258706027199    6.10449232686681   19.05677659205274
H        -5.04498999625932    5.32672491341328   18.07121009508041
H        -4.87368528015833    7.09478932512493   18.06043234034360
N        -3.42196951453636    6.02323585707552   16.99677789200662
O        -4.60201810343678    4.27496670987297   16.15747949109701
Si       -7.15251600079290    1.49281269245578   12.07848347874325
Si       -5.60860006128580    5.26177031761730   12.58693377245389
Zr       -5.64955774667436    2.59289763044021   15.48761584674891

