137
CSD_code = RAYDUR | q = 0 | S = 0 | Stoichiometry = C65H60ClN7O2RuS | MND = 6
Ru        5.00880203095749    3.64978936755456    1.91825694719413
S         6.89074767033657    2.80782097115243    4.24803654743345
Cl       12.65617490489292    2.05692856497417    1.93082615883601
O         6.49815803887401    1.68855197548810    5.07353085282677
O         6.81896921712762    4.11908929247113    4.86202203779800
N         5.24916804105772    2.45099075188520    0.30356572782368
N         6.32699100059058    4.96435511160385    1.14113048891544
N         4.65420645502387    4.93233204118434    3.46084420780413
N         3.43580311336444    2.51066430824131    2.53379509812591
N         6.23087375847186    2.64665783936337    2.80756144467829
N         3.48948977552326    4.77689459776110    0.87952616495327
N         2.29624083665422    5.01706791909346    1.42948340189562
H         2.04854310868118    4.59328356926377    2.31677993658420
C         6.16789699959022    2.60336002366528   -0.68249164001356
C         6.02942362800334    1.54097300977107   -1.64629316039881
H         6.62902033621828    1.43882851198842   -2.53037843509259
C         5.01725171180887    0.75596613183649   -1.21715034922002
H         4.61407009825679   -0.12771096945323   -1.67341749779836
C         4.53955486694829    1.33012926783633    0.01590761243285
C         3.51671355356241    0.78479566134191    0.78016548201698
C         3.04955356758386    1.32669015828712    1.97855799718308
C         2.11311566997231    0.67791044625967    2.84022308278499
H         1.65268209494263   -0.27018069066592    2.63953827727389
C         1.96804985279660    1.46847921090981    3.93724292900038
H         1.36727612398090    1.29418941843817    4.80885462730121
C         2.80658340160555    2.60812695188953    3.74205936974617
C         2.93648613002356    3.65751572639715    4.65577501272800
C         3.78305697844116    4.74477910616247    4.48534966550841
C         3.81025069849220    5.88475737958904    5.36772097271099
H         3.21236568538242    5.98113595677230    6.25352247857322
C         4.70064496625662    6.75538159346266    4.84893579377628
H         4.99502959989300    7.71720048107215    5.22155928612340
C         5.23259787808262    6.14469291111708    3.65692156431001
C         6.20337080231296    6.72735415395589    2.85686422535151
C         6.74084656295597    6.13060340815038    1.71509684136566
C         7.85288033671971    6.65412668267509    0.98771255284571
H         8.36760718969386    7.56377949489193    1.23086182731081
C         8.11985631364064    5.77500213548820   -0.01551135339092
H         8.89960639306145    5.82293584900121   -0.75111975308879
C         7.15837787592088    4.72354660447775    0.08433930100132
C         7.09255793416946    3.63465763973169   -0.78701008636533
C         2.91576849768182   -0.49610129201935    0.32957840291168
C         3.53166482980136   -1.70303554900683    0.66704613056382
C         2.95573351898415   -2.88950521283659    0.24229671535505
H         3.42560099713881   -3.82817084266091    0.50090249761493
C         1.78743712417944   -2.90144222366627   -0.50900940145300
C         1.19260097183258   -1.69182809358938   -0.83328814344702
H         0.28323651583986   -1.68534225930133   -1.41817766714924
C         1.74211351710314   -0.48644203546299   -0.42140653784885
C         4.79576654868900   -1.69948189837067    1.47094410942707
H         5.60797783079768   -1.25659782139054    0.89473568781843
H         5.07811945844903   -2.71134216391783    1.75086459863144
H         4.67885643749825   -1.10080730650609    2.37319354521881
C         1.18503540749751   -4.20346577628779   -0.94396030429069
H         0.37342625103518   -4.04197934661982   -1.64897632414849
H         0.79041840089056   -4.74147115957910   -0.08202536052887
H         1.93717174912421   -4.83520228447785   -1.41349001749929
C         1.09010422298959    0.81877307839194   -0.77126949763030
H         0.25252959847980    0.66386608979546   -1.44691061125085
H         1.80747263649683    1.48831491957849   -1.24480776693441
H         0.72377549460287    1.30994443512732    0.13058261950718
C         2.11645905302221    3.60054756677127    5.89170571449484
C         2.69956225985520    3.15037897830418    7.07751287830735
C         1.91609213581956    3.08755323594171    8.22193003495601
H         2.36104528657194    2.73514060679895    9.14179703721754
C         0.58218177737257    3.46488525430118    8.21313391097472
C         0.02717624384675    3.92270912281444    7.02521091158382
H        -1.00995334553443    4.22817750694227    7.00836054286842
C         0.77844340209051    3.99548740289009    5.86369594653946
C         4.13992896702604    2.75184357313725    7.10824912334583
H         4.41455112842211    2.36932576562032    8.08790764081563
H         4.78255733802256    3.60043360898591    6.87406468049809
H         4.36143918108893    1.99115050832360    6.36070248074096
C        -0.25463337078239    3.39497772993774    9.45509023760209
H         0.30874322281475    2.96706113482864   10.28012041123384
H        -1.14042204662471    2.78461409868533    9.28374439720655
H        -0.58850489682455    4.39142432223823    9.74342643989908
C         0.16914052162921    4.51050883759124    4.58977548743594
H        -0.86120232861915    4.81571341436561    4.75532273803992
H         0.17933170988992    3.73760947906728    3.82021958748007
H         0.73040688299782    5.37255127476025    4.22585544714845
C         6.70099016028242    8.07447284243674    3.23461713808116
C         7.74792584919297    8.22401588341600    4.14457129770944
C         8.16577275079208    9.50532030849155    4.47490151585235
H         8.97604558439617    9.62830893408475    5.18006537794430
C         7.57006485912155   10.63195592419287    3.92560973883728
C         6.53147871572086   10.46015801443215    3.02266681878237
H         6.05533335642844   11.32751857819602    2.58660724977142
C         6.08851028463860    9.19449854670484    2.67046481839682
C         8.43737834541908    7.03117486636605    4.73252929099439
H         8.87006556924738    7.27945967454674    5.69903156198203
H         9.24988749311237    6.71615003069264    4.07535245093399
H         7.75967169585789    6.18815570934750    4.85463918881558
C         8.04397653282825   12.00031136464229    4.31391658383192
H         7.52498515663492   12.76893404894666    3.74671164020141
H         9.11403270822814   12.09764786235853    4.13613380909887
H         7.86700007512924   12.17401935063643    5.37497443167529
C         4.95731619475908    9.01859613775694    1.69950854581745
H         4.58816770634955    9.98274155416905    1.35838837840098
H         4.13637993243929    8.47492666688310    2.16760379739171
H         5.28326408954599    8.44200902255716    0.83386801305038
C         8.08656404754232    3.57093878534123   -1.88841375674122
C         9.20992290387293    2.75634869799664   -1.75112388223652
C        10.14267491769138    2.71597414023070   -2.77838705649874
H        11.01640663640836    2.08917530446252   -2.66838826310252
C         9.97676065472080    3.45920994865385   -3.93625710524429
C         8.84407852661393    4.25407086177106   -4.05955398701878
H         8.70016194175163    4.83217421153146   -4.96187924821832
C         7.89717447088592    4.32070396765890   -3.05113326324674
C         9.39629231184284    1.91664187067744   -0.52368598867099
H        10.44835251731065    1.69064754266415   -0.36797765292786
H         8.85890316635973    0.97420534504941   -0.63516444026747
H         9.00273586576586    2.41397861567061    0.36045864399199
C        10.98183409117416    3.40238352963736   -5.04689087243049
H        11.87655750710246    2.86982132469442   -4.73512963458518
H        11.26245648743045    4.40612056076833   -5.36174951145893
H        10.55908228562893    2.88902413717025   -5.91060691354440
C         6.67301216485682    5.17522751320761   -3.20280486218271
H         6.68100325570525    5.98440214257745   -2.47236828698198
H         5.77524038944578    4.57977654390443   -3.03721108849258
H         6.62687234313732    5.60868688072251   -4.19882784259840
C         8.58581002383391    2.57852940173891    3.69581608731289
C         9.21640391540036    1.35550600215812    3.80055353239744
H         8.70670727315779    0.55099666109638    4.30625183441609
C        10.48307583741600    1.19122034605871    3.26459544227088
H        10.99846771928014    0.24632160206654    3.33985960298627
C        11.08500216227819    2.26076146708360    2.61801448750431
C        10.44947019232068    3.48895879237927    2.50200270578322
H        10.93301924436619    4.30383654813623    1.98583212737311
C         9.18649186993945    3.63997032468959    3.04689826460075
H         8.65430375734632    4.57536035911035    2.98030286105160
C         3.52303376091543    5.46318417515048   -0.25420618038992
H         4.38605008325095    5.43537643930820   -0.89314294515998
C         2.32326488956005    6.15951294005294   -0.43262613727490
H         2.05914892200760    6.79633687852643   -1.25053833438291
C         1.56036374048739    5.84620514688766    0.66878853875540
H         0.57140472998935    6.14770642573704    0.94798751554090

