69
CSD_code = RAYFUT | q = 0 | S = 0 | Stoichiometry = C26H42Ti | MND = 12
Ti       -0.85595687937841    5.16572485456496   13.06263693746964
C        -1.26752788639931    7.15527616999154   14.31754850184472
C        -0.10357114633668    6.53138330752800   14.84747741417753
C        -0.49203984381878    5.30994085120888   15.45557120226481
C        -1.87546393799866    5.12530043080450   15.19942655974813
C        -2.36550709322452    6.28516732091001   14.53776680708393
C        -1.36831414713577    8.62203831980173   14.01078469821195
H        -1.61658736726956    9.15678710805075   14.93255937818331
H        -2.14907963653168    8.84004657612014   13.28535178324726
H        -0.42654453174511    9.02103932273684   13.63905672192846
C         1.22018614217150    7.23243226897253   14.97322909116728
H         1.62720283687476    7.49155138522892   13.99189933592126
H         1.94705255725506    6.61980343696814   15.50151659000974
H         1.09756523432804    8.15961539991949   15.53813493995114
C         0.26317793150534    4.62004149288653   16.55472714577240
H        -0.02705631327897    5.08182425103558   17.50389519709720
H         1.33771448193399    4.73592991934795   16.45356075972409
H         0.02839305144837    3.56232568573205   16.62428338292385
C        -2.76745694140175    4.05993014612056   15.77311385673431
H        -2.19704275283940    3.33415277385351   16.34784243331490
H        -3.31585216743780    3.53354602893268   14.98677606750411
H        -3.50110385214287    4.51113569084470   16.44525618986374
C        -3.81272540283660    6.68521781974035   14.50458723517049
H        -4.04438061102161    7.23711368170150   15.42040633181035
H        -4.46906225676618    5.81825313269025   14.46444014307962
H        -4.04403501223855    7.33536978980868   13.66382575049107
C        -0.01775934928306    3.77785053788969   11.35129517626602
C         1.09570505643958    4.35406898389248   12.02206628159746
C         1.16062480625748    3.80151463194467   13.32898869412533
C         0.05326524979380    2.93617944478124   13.49365269912036
C        -0.69205921982662    2.94475514754359   12.28516478822159
C        -0.23847736677528    3.75385742453590    9.86668537697377
H         0.32989608887146    4.53346339291784    9.36420786273304
H        -1.28807765448413    3.86839924866009    9.59989151645223
H         0.09994308981495    2.79097530461869    9.47434813032805
C         2.21374333652523    5.15018070470092   11.41124038406244
H         3.07187062210365    4.49895972179923   11.22202702161027
H         2.54128013591647    5.94614909639512   12.08162758839080
H         1.92181750927777    5.60013523920991   10.46475192783739
C         2.41819733710607    3.84164765154592   14.14749511785273
H         3.22235688757203    3.37135796431352   13.57424890978137
H         2.31322236605331    3.28988733937608   15.07741768474958
H         2.73633023534967    4.85918992151933   14.37025393837731
C        -0.13318555635829    1.86984026309015   14.53358617562007
H        -1.13781872014508    1.87538809245608   14.95465789649362
H         0.59165838997068    1.95726805368039   15.33854342290839
H         0.01554873840997    0.89253133120863   14.06527206305175
C        -1.79536644281212    1.96945266026704   11.98680080547252
H        -1.40802172363851    0.94832120241064   12.04061242874362
H        -2.19888804562767    2.11982663320214   10.98819642025785
H        -2.61080997023575    2.05414241003379   12.70777464650488
C        -2.62053796974304    5.15594763187734   11.96391181426050
C        -2.29943203838054    6.52510660015764   11.35368658022490
C        -0.78734607896819    6.62367307136509   11.58232874307038
C        -2.72917377841150    6.68705484183579    9.88118603977313
C        -4.23793134857221    6.49719228049598    9.73299746083314
C        -2.32704383466799    8.06263910001361    9.35129453565568
H        -3.58463213156681    5.13285925769186   12.48034902434169
H        -2.65417201421847    4.40436439323920   11.17107542824655
H        -2.81347623505280    7.31248125663242   11.91625263780120
H        -0.45632736951385    7.63619589843420   11.83063899562450
H        -0.26666330657651    6.31654848053547   10.67193817142715
H        -2.22134107030990    5.92465827777039    9.27898092183012
H        -4.54238551063191    5.51632618349772   10.08948862599134
H        -4.77222895521371    7.25133513823019   10.30825544880290
H        -4.53532928045488    6.58999031989075    8.69002451073321
H        -2.82141941555753    8.84745489580590    9.92136834735961
H        -2.61233293563208    8.16920183437021    8.30621133715545
H        -1.25250698252068    8.20778097066043    9.42942996463989

