37
CSD_code = RAYFON | q = 0 | S = 0 | Stoichiometry = C16H20W | MND = 12
W         7.11783645017753    2.36899164241817    4.16882793835168
C         7.58732055842781    2.48711446934047    1.97868901106081
C         6.67949843225355    3.58066958060907    2.22305745699712
C         5.44250007836446    3.02650203923274    2.57887637714952
C         5.54560494430976    1.61202876457876    2.54004632105356
C         6.84911240656279    1.26006822255274    2.15284318290172
C         7.18426445755378    2.98668117004283    6.50364885404436
C         5.96349018676178    3.36460547762707    5.90191543252193
C         5.31563264357375    2.16465159207916    5.47002781585536
C         6.15071856497718    1.05362436771772    5.80834425690555
C         7.29849976490120    1.57338906924308    6.44598110061837
C         8.89199845799734    3.67858958834880    4.33442198904287
C         9.09830166057722    1.38502082974886    4.25070654846229
C         9.88554670436596    2.59592652951177    4.74765913134083
C        11.29152678393356    2.74183289887989    4.13805703509980
C        11.97258885274239    3.97144052313953    4.63792562503117
C        12.31599818129497    5.00002955172697    3.88508694708760
H         8.51194925734074    2.57338670537764    1.41495898242060
H         6.87745104913018    4.62295331242864    2.02101567130625
H         4.53373778232026    3.58112336971770    2.77221785518844
H         4.72474079890298    0.92239252879370    2.68800660889141
H         7.18682613833885    0.27294015998794    1.87359264062418
H         7.84893057891790    3.64021367559424    7.05332842975752
H         5.52510891431825    4.35113266316845    5.92685715925824
H         4.27444192660059    2.09248440347142    5.17409877925998
H         5.87739345177730    0.01065795324962    5.74909411441233
H         8.06360798031951    0.99275315822310    6.94461446840293
H         9.19974367845101    4.10333120857543    3.37549060773234
H         8.84016125480113    4.51325547172102    5.03803703570414
H         9.46386874410309    1.09518910030443    3.26177013114387
H         9.20535789420467    0.50460775605601    4.88994691868391
H         9.98663560507849    2.56474796044478    5.84140716375137
H        11.21028847166048    2.77727651001710    3.04941313432922
H        11.88280673518861    1.86166794315736    4.41045262046083
H        12.15799607601769    3.99544812995551    5.70493185495544
H        12.14030979565889    5.00562817611186    2.82136555684263
H        12.79070473809429    5.87754349684647    4.29148524334974

