77
CSD_code = RAYHEE | q = 1 | S = 0 | Stoichiometry = C30H42CuN3P(1+) | MND = 4
Cu        9.90070138300542    3.68476414674065    0.10423317400904
C         8.20198545660321    3.79033156984275   -1.93242848232388
H         7.16109254246134    3.71979463474615   -2.29615106579967
H         8.86227750000251    4.00085920341806   -2.77422938274415
N         8.63477867529202    2.56525301026902   -1.27495970854811
C         9.05751728923978    1.46613639124840   -2.14645196491317
H         9.64249974412171    1.93447531898543   -2.94691591637263
C         9.98887187669351    0.53228913899246   -1.37520452397088
H        10.73939309839339    1.11294674892522   -0.83852413725415
H        10.49746776747609   -0.13276619146894   -2.06670799644514
H         9.44095552982253   -0.08066477750253   -0.66430180742439
C         7.89624025556971    0.69801124262574   -2.77711343381499
H         7.23211164912257    1.36891201182860   -3.31717376446556
H         7.32205223518675    0.16653612128774   -2.02218628042133
H         8.28376093130465   -0.03203355193902   -3.48180486058588
C         7.68631527162909    2.25033650435251   -0.21460670973440
H         7.95436582863843    1.30008261823057    0.24817288758174
H         6.65040010005772    2.18978895940044   -0.59403034391467
N         7.84957164333215    3.32312558889465    0.75708516019426
C         7.40102761467906    3.04227210894132    2.12348286962496
H         7.72718934121903    2.01682728686394    2.33444092349601
C         8.12256562427069    3.97079593975586    3.09886914633739
H         9.18859844847350    3.99489083868635    2.87245504124910
H         7.99357219366721    3.60863652756246    4.11442675429608
H         7.72823879307088    4.98254880473967    3.05272994401151
C         5.88484027041735    3.11662350692182    2.30214567369716
H         5.37640706796138    2.45885063878090    1.60094601183229
H         5.52261656144092    4.13165596493039    2.15885750907385
H         5.62207645089841    2.80388495180388    3.30856973224803
N         8.35275642237687    4.82635394272083   -0.91824141990405
C         7.39635834444050    4.56782619867761    0.14936788033604
H         7.44628496822013    5.37398215158289    0.88183663340327
H         6.36256834231838    4.48671428619773   -0.23184406175545
C         8.45517793157976    6.21186679849983   -1.38406173164168
H         8.41316230077815    6.82956190792429   -0.47905147396104
C         7.31908178155404    6.63488391167776   -2.31493164742090
H         6.35045815300242    6.46828225450113   -1.84925235974093
H         7.35719006857157    6.08794602260569   -3.25378652141530
H         7.40780085874982    7.69417671910998   -2.53805548126947
C         9.81972218590193    6.43196314817203   -2.03497106139240
H        10.60569593856238    6.01690940208359   -1.40367581271773
H        10.00119372056921    7.49556282979903   -2.15745210109715
H         9.87297101041482    5.96898387957236   -3.01689650780110
P        11.96515162178655    3.77964317997994    0.81414708621326
C        13.16076868765193    2.88547049624694   -0.22258187929819
C        14.22158584276213    2.14629763877008    0.28750631485636
H        14.36879745330746    2.07474460848419    1.35587660623844
C        15.08492564148331    1.50103431841968   -0.58140655060445
H        15.91041973629170    0.92802790268271   -0.18728658286235
C        14.89348841507034    1.58838531196214   -1.95062823009173
H        15.57081136449324    1.08348387252291   -2.62194120050723
C        13.83113019245696    2.31909782923998   -2.46125167665698
H        13.68208304208024    2.38303582783795   -3.52850157935933
C        12.96335220960758    2.96139260372484   -1.59964430390842
H        12.12185331169351    3.53072168974346   -1.97722101924962
C        12.66648577760038    5.45194740956712    0.93202284705279
C        13.99766329936393    5.74482783214789    0.65758634009629
H        14.67183205476826    4.96005681799910    0.34433075164511
C        14.45094906714869    7.04648050937446    0.78432606027757
H        15.48444747393606    7.27575785765655    0.57350703210261
C        13.58471097469363    8.05280554327105    1.18009145097088
H        13.94525149384973    9.06515497241858    1.27765614667286
C        12.25494583313339    7.76402598208590    1.44658120851721
H        11.58113386861819    8.55061368142933    1.75075881615704
C        11.79511209365178    6.46754030746885    1.31807849515947
H        10.75772647024422    6.22128007462957    1.51362949055214
C        12.21767650953446    3.08531621471693    2.47432984806219
C        13.15474287611116    3.57724017897453    3.37606393167667
H        13.77351828412891    4.42190521500718    3.10767736404317
C        13.28615172172849    2.98086533046049    4.61815132580166
H        14.01424095729462    3.35981819801784    5.31913038964598
C        12.48814568323237    1.90206265927699    4.96364160734305
H        12.59595176319891    1.44234374091745    5.93389336424079
C        11.54798659383908    1.41476575836082    4.06858868101702
H        10.92440576892475    0.57701512868373    4.34184196851972
C        11.40957148692587    2.00770344041159    2.82833751575714
H        10.67556925824113    1.64805915648740    2.11619959738992

