31
CSD_code = RAYJAC | q = 0 | S = 0 | Stoichiometry = C17H10CrO3 | MND = 9
C         0.25276261385386   12.61479406659159   15.29204840146339
C        -1.74252547288525   11.34726672245098   15.42739915860555
C        -1.66999296362856   13.35091417170685   14.10724975956107
C        -1.20645547204201   11.50564499987856   11.80079646037729
H        -1.92726895532738   11.97878700899349   11.14301370283510
C        -1.51701806742362   10.31276601860625   12.44635360530104
H        -2.49056631335658    9.85746540579232   12.30988321853581
C        -0.54069599141191    9.65974589660305   13.22767119627592
H        -0.77008088966622    8.70068351451280   13.67717371379196
C         0.75238676495228   10.17967369813455   13.31444690909379
H         1.52575376258361    9.63415830389819   13.84181871657457
C         1.06799645940613   11.38628820572515   12.66826899097056
H         2.08647569722968   11.75876405122942   12.68164109230966
C         0.10650583363722   12.04793099999269   11.87812236899713
C         0.44375241353212   13.19711995097929   11.13916502179762
C         0.73254885380907   14.16933448336700   10.48062758595475
C         1.06088950990872   15.31144108722769    9.72378390570169
C         2.39387226957265   15.70334263334547    9.57987839656960
H         3.17189635520216   15.12411274090616   10.05539904084314
C         2.70644127669190   16.82264241656531    8.83414182300481
H         3.73830119435504   17.12269186671842    8.72420830939063
C         1.70217536014710   17.56140192707131    8.22793617011439
H         1.95154611905530   18.43634812387085    7.64628111913709
C         0.37752842461919   17.17744349450524    8.36945957424199
H        -0.40493284322346   17.75462651145140    7.89868501764424
C         0.05235263364462   16.05913261014379    9.11111465354008
H        -0.97790198455027   15.75591132509713    9.22795167284977
O         0.80225619304120   13.15704728340223   16.15044011802884
O        -2.37445972377171   11.13208463266972   16.36908612769584
O        -2.25810667477113   14.33268586122277   14.25392181914066
Cr       -0.72103638319828   11.79744998734255   13.98533234967068

