55
CSD_code = RAYKAF | q = 0 | S = 0 | Stoichiometry = C18H26NO5PSSi2W | MND = 6
C         9.19664786627357    9.26721841283572   11.83708890117049
H         9.54491152609313   10.30632051688863   11.86400574120918
C         9.60353028899548    8.09991144927769   14.07474337820457
H         9.51506265088733    7.80370180540447   15.10192876982101
C        10.60770999677104    7.83651669301334   13.22697093639538
H        11.47401565984102    7.25336161291345   13.48417727699019
C        10.35403324950125    8.30306663929330   11.89748371888299
C        10.75111471075834    7.91148654454767   10.68077108484643
H        11.57099821550022    7.24786696454121   10.46111580516169
C        10.11738358170305    7.73131176265533    8.36396780289231
H         9.47471610682192    8.21158227189284    7.62787560022348
H         9.82348217532255    6.67832592621121    8.46348382339752
H        11.14749519883381    7.76587743807270    8.00440878103234
C         8.22257584347904   10.60003799400528    9.46154909445774
H         7.68411095757808   10.39615703837267    8.52780529458797
C         7.87297036960503   12.64955127958453   11.85672769472854
H         8.81714661451612   13.05358564735230   11.51005549586652
H         8.06501209574942   12.06731857570920   12.75326522287348
H         7.24937958987468   13.48753246215804   12.15114451793535
C         5.69551420068039   10.57148134986091   11.51942036248790
H         6.18513990481550    9.87120820496201   12.18796840972522
H         5.02166250891514   10.01048771185333   10.88052407882103
H         5.08494355949379   11.22694168374708   12.13454638049947
C         5.95646931560779   12.68805214900290    9.33647243700135
H         5.38023201207610   12.07645673631679    8.64871372769588
H         6.57963782315632   13.34838190655268    8.74603197634598
H         5.25379477882476   13.30513377779658    9.88619931003552
C         9.40690972687220   13.34504725790661    8.54113290232318
H         8.92168219125572   13.86115297865562    9.36059656633469
H         8.75653938010814   13.41427307399595    7.67536995194680
H        10.31428742396842   13.89087573446612    8.30294269787104
C        10.52582772379306   10.84623750967354    7.28056956200382
H         9.74257878102687   10.44679066563450    6.64362674068554
H        11.26354081876410   10.06715582600286    7.43108710901821
H        11.01076014192965   11.64594693890332    6.72879629958718
C        11.25178617219060   11.53068150757756   10.21868509199431
H        12.11262125421336   12.04774719010845    9.80460984658516
H        11.57071771488387   10.52787718684890   10.48183816207168
H        10.98083442146642   12.04709238769128   11.13422853080914
C         5.47554349242509    5.65146893422317    9.82351453382507
C         5.46462486778060    8.36661363996958    9.07474688521185
C         6.01041113961150    7.36752190142846   11.82983185772211
C         8.12894815258931    5.93524471540316   10.78680684976201
C         7.27453797336969    6.73104053649453    8.10098135217628
N        10.01998361600321    8.45170455754199    9.61552523532153
O         4.74517398284730    4.77747070740657    9.72142737082846
O         4.78385076451351    9.01699919276914    8.42297766663797
O         5.46325476085641    7.27931378138636   12.82673274071913
O         8.89999856362282    5.22028323684424   11.23662047132785
O         7.38371005666752    6.42915358866091    7.00109639770825
Si        6.95983920237157   11.60371059337139   10.54275048432262
Si        9.84218916420346   11.52623289922066    8.93194113651439
P         8.44167684051755    8.94495405366697   10.17502305072985
S         8.26777238033254    9.00356656904657   13.38885396003259
W         6.76280849015127    7.15136828026714    9.97994092265578

