107
CSD_code = RAYPUE | q = 0 | S = 0 | Stoichiometry = C54H44N6O2Zn | MND = 6
Zn       10.07290868032710    5.09735601308545    2.64614514048375
O         8.82391516980154    4.53212899995385    4.16360499703076
O        11.23097726943943    5.95277776476601    1.19219395692285
N        10.75050972174385    3.52002822151262    4.88613242355814
N        11.28438416890801    3.74417420022437    3.67544760061761
N        10.08124750873517    4.44870332866631   -0.10070298169442
N         9.66781945890761    3.84537840939990    1.02424494244775
N         8.48666309880731    6.44706660145896    1.91712554205675
N        10.76303137317750    6.66395986783703    4.03800415183131
C         9.66829102644502    3.07841277205616    7.38251428843745
H        10.59342081152270    2.60031253369749    7.10209275747048
C         9.13176601258095    2.92435737750166    8.64618941930649
H         9.64375777360601    2.31650428645437    9.37836356136224
C         7.93455748052678    3.54091562294911    8.97741029386139
H         7.51622353831303    3.41494398875862    9.96590877867041
C         7.27164284219388    4.31426469365292    8.03826386181549
H         6.33659667252119    4.79219765155938    8.29461207015115
C         7.80362349359556    4.46957797668779    6.77232139002539
H         7.29585570694691    5.06056186362768    6.02400226130056
C         9.00653542472598    3.85578634468474    6.43593878432870
C         9.54837341605662    4.01400250236068    5.06947460954678
C        12.24448038013792    2.97291560280510    3.25320785302670
C        12.71571749386597    1.79733294743298    4.00592044179307
C        11.81500428107152    0.92933439325896    4.61803699099660
H        10.75655493379031    1.10972753919726    4.52888279943016
C        12.26946052083099   -0.16690323842259    5.32669661880697
H        11.55509947725152   -0.83348578641407    5.78829287022962
C        13.62825638258560   -0.40728797649324    5.44420741070219
H        13.98334147304040   -1.26241198161010    6.00102288647646
C        14.53261162919967    0.45626959225105    4.84713129330998
H        15.59417550132944    0.27674598930838    4.94147215586293
C        14.08230000329980    1.54929111301322    4.13094193095493
H        14.79038236389109    2.22848365099220    3.67815162599628
C        12.83066315405890    3.31511603639207    1.98588436092463
H        12.61842642498016    4.32137840919012    1.65870929695983
C        13.49493808716072    2.47067148446240    1.17725778133694
H        13.65070000604208    1.44596323871044    1.49365175252860
C        13.95819134618768    2.78689424195436   -0.15959901308971
C        13.89433690498342    4.07340359541416   -0.70604245583933
H        13.53422863905963    4.89774210151000   -0.11183323740573
C        14.27723965120910    4.30678870119640   -2.01124067140337
H        14.20324361968109    5.30533721112561   -2.41727001780600
C        14.74559640171421    3.26851475745232   -2.80106203481759
H        15.04011660396251    3.45401971141588   -3.82352505349831
C        14.83456720783173    1.99159552582825   -2.27017125901475
H        15.20344326630944    1.17775150924628   -2.87831278509515
C        14.44622809665159    1.75378219839529   -0.96683761726360
H        14.50480850403644    0.75293218596451   -0.56192879665460
C        11.78790244935114    7.49418012128547   -1.07985953967170
H        11.99353715391588    7.90551723781105   -0.10232284766341
C        12.15224321815673    8.17134435206187   -2.22810764710796
H        12.64604034213305    9.13028498932679   -2.15708233008921
C        11.88929375673669    7.61805285150265   -3.47076664182503
H        12.17865344340126    8.14497588309792   -4.36888790546381
C        11.26000851475411    6.38554004155669   -3.56088674331705
H        11.06156993910680    5.95314623575168   -4.53112219589231
C        10.89255924775324    5.70578324435335   -2.41576403378715
H        10.41048678581763    4.74224617426901   -2.46368459625173
C        11.15320057908914    6.25854202774160   -1.16484968839269
C        10.79153880872612    5.53825945164795    0.07447521047216
C         9.34721684126523    2.58410549595701    0.98758635587754
C         9.50816390868297    1.75156067970779   -0.21713914607030
C        10.64976282193576    1.84792423435216   -1.00904803821297
H        11.43548463261714    2.53062337913301   -0.73097733950541
C        10.78643822905327    1.06524570376028   -2.14006281701796
H        11.68285204224468    1.14871415192353   -2.73770317694044
C         9.78272520535219    0.18301396295339   -2.50357878871797
H         9.88841879976101   -0.42631262482454   -3.38953391443124
C         8.63868236723751    0.08703712666799   -1.72765044263979
H         7.84964463116524   -0.59524557860445   -2.01043276360955
C         8.50114221598855    0.86240264273811   -0.59177889164870
H         7.60157947210382    0.79521348427366    0.00314806566045
C         8.82864937799276    2.01960585017578    2.20417268037194
H         8.48774191817972    2.75126652521730    2.92055554855413
C         8.84470491706058    0.71505222098755    2.52973498584249
H         9.24463526648705   -0.00245522804889    1.82285230336865
C         8.44660192337634    0.16907001984246    3.81239134388390
C         8.70486479971483   -1.17933392008263    4.08126572745848
H         9.15842347282895   -1.79112462305175    3.31373337537605
C         8.40521075106104   -1.73010674116358    5.31124612309840
H         8.61759389412398   -2.77303720034827    5.49950701996495
C         7.83933645309481   -0.94756352918604    6.30505764321146
H         7.61271720889173   -1.37498310608920    7.27073922034968
C         7.56474928183155    0.38719203378239    6.05175445950686
H         7.12531947641357    1.00519534586581    6.82141429093473
C         7.85738017980810    0.93905243492316    4.82113031874906
H         7.63400821202769    1.97952711742399    4.64852258596741
C         8.83134592446909    7.59864493563348    1.35768083968674
H         9.76304681369879    8.02547749106589    1.69857898940692
C         8.06868014058208    8.22177142959355    0.38434236543778
H         8.39966306806674    9.15003673198685   -0.05441746298636
C         6.88616286537426    7.62149005932270   -0.01688676171424
H         6.27103660706795    8.07066937866754   -0.78283791275740
C         6.50963405937923    6.43382900965965    0.58926072427567
H         5.59247179322646    5.93556484024142    0.31671484316646
C         7.34468343643352    5.88399796596581    1.54752986674462
H         7.09649052854589    4.95805433729319    2.04539072483225
C         9.92800673421590    7.11166432018980    4.96542798351588
H         8.87850808217705    7.06065687067599    4.71561435286492
C        10.35294577617983    7.60110239444200    6.18905565542127
H         9.63404602895753    7.93846041810766    6.91919239327468
C        11.71248315988087    7.63484799043302    6.45392548406855
H        12.08149153715781    7.99770169974424    7.40208218802463
C        12.58746870172027    7.19566354387528    5.47346120176830
H        13.65455324616617    7.21271269824547    5.63089559018573
C        12.06476520945878    6.71581083383818    4.28419341483720
H        12.70582074495907    6.35891680781605    3.49141477256651

