87
CSD_code = RAYPUF | q = 0 | S = 0 | Stoichiometry = C37H45IrNO2P | MND = 6
Ir        2.84576715027996    5.74380667245009    7.40482511911084
P         2.66919234123397    7.78228531268034    6.26276258915826
N         0.93304226006213    4.68961894066609    6.80221035180587
O         2.92825831784127    3.91178328702843    8.41851030960028
O         2.00246730497723    6.57811532000551    9.26859822413710
C         4.65908463306828    6.06971721188006    8.25182202550805
H         4.70992570323096    6.89519746313810    8.96320370964522
C         5.69556742290122    5.23123816735580    8.23301383521149
H         5.67114831702923    4.35705243892207    7.59504102713518
C         6.91154190689172    5.35596569205441    9.03277261634178
C         7.73610696495958    4.23953886358203    9.18898442661779
H         7.45548716496038    3.31041445791390    8.71270148539213
C         8.88900664047515    4.30294238250237    9.94667047824000
H         9.50849097438102    3.42405746530063   10.05953022936954
C         9.25540690058989    5.49017902128364   10.55905745693781
H        10.15833400673065    5.54289894502075   11.15003654619100
C         8.45691532607608    6.61120430072723   10.40120781130250
H         8.74183542322206    7.54405951896591   10.86786049754020
C         7.30075389446451    6.54718344018750    9.64820662883278
H         6.69827896962485    7.43486132849562    9.52505936293346
C         3.46696494586773    4.77221715215529    5.74875065768765
C         4.65585761001537    4.88719410930829    5.03032223789411
H         5.39848365429635    5.60483002622121    5.34431352372552
C         4.91843769061834    4.09393690491072    3.92741338794840
H         5.85025358750485    4.20831066035253    3.39119312722662
C         3.99098083611934    3.15378759079969    3.50271945669764
H         4.18941507008596    2.54554608744591    2.63209027330364
C         2.81474748899786    2.99594077633328    4.20447391593862
H         2.08713575648318    2.27095308456343    3.86698433645561
C         2.55048037736088    3.78820740186880    5.32328399539489
C         1.32589494222431    3.63245230760812    6.10236084068899
C         0.62973747701870    2.40329157421725    6.16425504096881
H         0.99467670085263    1.55988708982169    5.60009644346158
C        -0.44851093069097    2.27526612592534    6.98842649968219
H        -0.96836601063275    1.33241276334185    7.08981238974355
C        -0.89159759903042    3.39160634746279    7.72927137625185
C        -0.16852236703042    4.60544444240746    7.58093816394359
C        -0.62642214495669    5.74939075624556    8.26517709984627
H        -0.08904684621412    6.67325295668720    8.12985566402019
C        -1.70897662975728    5.67695766341377    9.09685311687084
H        -2.04556815991313    6.55839930490929    9.62344291540030
C        -2.39562799752283    4.46726934900372    9.27468078612758
H        -3.24392955589999    4.42883737379355    9.94225375604109
C        -1.99857974231369    3.34798745743192    8.59619208156609
H        -2.52934919945862    2.41305294744468    8.71038325904931
C         2.50523530056242    3.66148836979862    9.57608983678616
C         2.60677107427873    2.21025675129106   10.01151482924950
H         2.98986448279681    1.60985787975881    9.18999517124790
H         1.62868822830445    1.83831910393018   10.31047912124496
H         3.28224822542289    2.12784428360866   10.86042289848114
C         1.95343606015099    4.54890820126916   10.49880168743502
H         1.65888617663159    4.14109817144824   11.45437693616084
C         1.75097701148769    5.91938318955829   10.30299574726579
C         1.14165247035997    6.67817136568840   11.46915095911063
H         1.03103657068291    7.72833490101008   11.20951076187749
H         1.78094795150454    6.58984905521468   12.34478998651300
H         0.16654654620312    6.26068824518861   11.71271574578413
C         1.47450042649062    7.83920907559676    4.81263997726143
H         1.41634826957755    8.88502088616801    4.49361172781237
C         1.95105122049351    6.99667947099309    3.63301248962603
H         2.83817518116755    7.41503308107689    3.16593530817558
H         1.16755973627875    6.95242478337988    2.87727876070397
H         2.17454957598920    5.98298881918596    3.95410461023455
C         0.07921260547286    7.38323529221619    5.22480881998412
H        -0.29861846335605    7.94494017041964    6.07514188433605
H         0.09933836917711    6.33029842275470    5.48738807991128
H        -0.61659420716384    7.51642586659155    4.39659388104990
C         4.20483464291284    8.45455403248731    5.40445781815887
H         4.36536635692469    7.68999413072815    4.63521900184952
C         4.07436437140795    9.81368019597935    4.71998848807184
H         3.20208770251484    9.87898121606796    4.07657560963252
H         4.95476932250005    9.98144072850136    4.10028071139314
H         4.03559180709308   10.61522102807957    5.45290704872563
C         5.44833655651944    8.45224109917328    6.28856978391266
H         5.52369798266671    7.51301008265315    6.82949068324905
H         5.43206703340978    9.26681561120626    7.00588758749368
H         6.33584379329416    8.57178168073032    5.66856796907301
C         1.95297750710092    9.11353700026291    7.37960811122825
H         1.18061250687024    8.56174003593323    7.92804589257025
C         1.29710901533399   10.33254922459944    6.73358964598335
H         0.45381858761161   10.06595209970786    6.10323963913200
H         2.00412927659784   10.90640077716126    6.14319625394552
H         0.92234306749645   10.98267135280077    7.52436510461440
C         2.98821639160600    9.55700305692225    8.40876902152799
H         3.48388208698174    8.68861301055661    8.83143838910565
H         2.50058238309160   10.10089712073747    9.21701320941066
H         3.72907621846906   10.21480864537874    7.96211173363464

