60
CSD_code = RAYQEQ | q = 0 | S = 0 | Stoichiometry = C24H31Cl2IrNP | MND = 5
Ir       12.53218267987759   -1.26497345965012    2.02589059935062
Cl       10.90883990454799   -2.85390078173701    1.58396671317755
Cl       14.08910213487560   -2.94110474119905    2.19249560225938
P        14.25231273612321    0.18900868502492    2.76212791381198
N        10.98573836306279    0.01089330604210    1.97684313903052
C        12.64343298035120   -0.65088679895229    0.11758928614096
C        13.54992756021973   -1.09253275613108   -0.83204347199349
H        14.29918256913152   -1.82390961580410   -0.57074698293458
C        13.48796148940533   -0.60247571450765   -2.12684099318416
H        14.19647165775167   -0.95212975434167   -2.86319415646741
C        12.52118201834002    0.32747772623449   -2.48362862245656
H        12.48368747823454    0.70439037134198   -3.49478762525129
C        11.59703459658117    0.75774045846743   -1.55438482547017
H        10.83609016886582    1.46677285246276   -1.84388265040131
C        11.64236671446310    0.26696600797132   -0.24854160086979
C        10.69738196794598    0.58392404159466    0.80447081086941
C         9.55270423642154    1.39080271096644    0.64627963716091
H         9.35674302793776    1.84282518910172   -0.31200900676994
C         8.70348851331979    1.58353047664947    1.69703074315908
H         7.82250706834743    2.20047694735258    1.59959502007410
C         8.96671274415525    0.94520234626890    2.92875949709921
C         8.12163810898208    1.05680196035891    4.04871791825224
H         7.23726388319565    1.67167243961752    3.96718832786615
C         8.40743519715589    0.39007647301842    5.20931023957402
H         7.75093925121706    0.47357751928641    6.06209386558895
C         9.54924340529362   -0.41896850867049    5.29515274385968
H         9.75476485775209   -0.95445450660585    6.20975522958335
C        10.39616215221600   -0.53722738238828    4.22696519917881
H        11.26695637360295   -1.17930562411231    4.28048712649179
C        10.13228516858466    0.14060265701753    3.02161802573043
C        13.80573790942703    1.94268871723280    3.24556551622837
H        14.74961146954256    2.44640946375101    3.47686910121549
C        13.13308919922032    2.64600316232647    2.06570889282489
H        12.08106770110333    2.37977691028689    2.02006806558679
H        13.58435884599694    2.37123818621418    1.11505661930037
H        13.19944696875035    3.72677566410311    2.18348371925438
C        12.90030476447156    2.03008846792318    4.47040789053052
H        12.56691182582494    3.05935456538252    4.60154049517017
H        13.41705595933893    1.73281177050872    5.37881453036972
H        12.01787706664496    1.40572722618056    4.35154953392200
C        15.59965999140889    0.49165577837333    1.48242540245106
H        15.03269549671922    0.53653073182768    0.54316876347076
C        16.41575604470632    1.78038032033648    1.59492647242819
H        16.96463452080047    1.83701944787234    2.53082234346194
H        15.80392995711948    2.67150353415067    1.49354976355915
H        17.14608055674183    1.79024637263603    0.78678136716523
C        16.54191828115932   -0.70784895148380    1.39202909955979
H        17.09322585432030   -0.66936316556636    0.45442557826495
H        15.98466886323710   -1.64103907198389    1.42761776293559
H        17.26378539644237   -0.69871281126536    2.20563666579369
C        15.13640662930501   -0.53368099702130    4.24122334159035
H        15.70860748239764   -1.35797971226344    3.80026244226166
C        16.09670212602448    0.40047262923311    4.97029441091801
H        15.58036599553816    1.24121780666342    5.42699082284703
H        16.86399136535180    0.78333581629930    4.30384848441168
H        16.59592962644482   -0.15406670611998    5.76403667011558
C        14.13798504120260   -1.16735369350533    5.20980590116319
H        14.67488623260671   -1.68318819179261    6.00460648447504
H        13.53873939168741   -1.91197766981178    4.68629370060335
H        13.47843042850317   -0.43319812516237    5.66641245565850

