63
CSD_code = RAYSUG | q = 0 | S = 0 | Stoichiometry = C22H27N2O11Re | MND = 6
Re        3.84146338851121   -1.41331591509394   14.54419263006905
N         2.66147572676961   -0.46125351191662   16.10360744692401
N         2.10405128136742   -0.43104484071384   13.35241809867793
O         5.40828557523119   -2.12832617366539   11.97940990262073
O         2.38571036663771   -4.13111509473498   14.73958927227243
O         6.18746733874286   -2.28632455496912   16.35789389279736
O         3.43662469531582    2.63620535669153   14.42454062678390
O         4.40470802926308    0.64069646797136   14.50149705540526
O         0.27502022492347    0.56827359153213   11.19829249106050
O        -0.40655406337868    2.71731898050333   13.06052444515252
H        -1.24114906073400    3.09700828621225   13.36609540581147
O         0.74619289992826    5.36854416541722   12.42745791079020
H         1.01253340904211    4.81610653618772   13.17443977469201
O        -0.73215985332311    2.98599014441533    9.43757314756715
O        -2.37618915247033    0.06785241038951    8.91716702301065
O        -2.54904069631805    2.23270771458830    8.22207872798072
C         4.84484574167511   -1.91166058131408   12.95118362472911
C         2.97581798163063   -3.14462367113265   14.67286771527504
C         5.31274465905964   -2.00259586134926   15.67718769916777
C         3.17625593590099   -0.10153866211868   17.27617948902358
H         4.05993119872318   -0.63709957850032   17.59641302976001
C         2.63699087286088    0.90614908346503   18.05415990569816
H         3.10195351021086    1.16971504699537   18.99008915191106
C         1.51739855757612    1.57909790269026   17.59215779512607
H         1.08654754225568    2.39137906689962   18.15667549528235
C         0.97068392782012    1.19634832008111   16.38022550901620
H         0.10956299605723    1.69952623347385   15.96994931714176
C         1.57015195236849    0.17163569796472   15.66345768527093
C         1.02132103596399   -0.28899240671720   14.34071827816873
H         0.26772767342955    0.42743575526121   13.99109021499035
H         0.55349107487650   -1.27274074962400   14.48603559167416
C         3.55336495574401    1.47404097064069   14.07854230828915
C         2.57719347363758    0.91350663859892   12.98925926089550
H         1.74713169385769    1.60784065080594   12.86336584233794
H         3.14810354419237    0.86085789137071   12.05790347656989
C         1.64512842998218   -1.18906034326972   12.17512237672725
H         1.56598978529025   -2.24662068809344   12.45175453935894
H         2.41347934511623   -1.09797814548743   11.40444792825015
C         0.29123799133882   -0.79314399477408   11.57041758457535
H         0.12034007023741   -1.43566699044143   10.69412664957577
H        -0.52656550922904   -0.99006282989920   12.28080620440215
C        -0.96267673543963    0.99526586777000   10.69664459617555
H        -1.77894527905902    0.53040469770157   11.26900448275703
C        -1.07720879627381    2.53982285181694   10.73657936327742
H        -2.12510154072421    2.80859841337458   10.94839363290133
C        -0.15088246288357    3.20697212494695   11.75972446390449
H         0.87850427577046    2.93042104388235   11.51835696338718
C        -0.27733966448998    4.73068731565406   11.71562328539014
H        -0.21785327956301    5.06956789997401   10.67972862234403
H        -1.26329548727050    5.01777130677897   12.12469998730376
C        -1.14379557792807    0.66569484025633    9.19537880457316
H        -0.32250847354599    0.03937971003298    8.83449366764826
C        -1.18832604148433    2.05576194827126    8.52118399088944
H        -0.57394959536571    2.15952880466982    7.61814149534508
C        -3.19151935770760    0.97475495691954    8.17222565832330
C        -4.56511901153117    1.08601260835629    8.82912345692057
H        -5.04049695204717    0.11052926298389    8.83716582544585
H        -5.17289065405067    1.79118742325978    8.27196010732102
H        -4.45468152031118    1.44027173748254    9.85030345926287
C        -3.30207196560983    0.48186819474731    6.72565294475327
H        -3.89200555976913    1.18637880331175    6.14796737683077
H        -3.77494450491245   -0.49512227436950    6.71190257631378
H        -2.31086036591379    0.40307014384787    6.28633071406919

