104
CSD_code = RAYSES | q = 0 | S = 0 | Stoichiometry = C49H51N2NiP | MND = 4
Ni        6.90327548277226    3.99670623888262    0.25651352891926
P         5.58830986621932    4.89584154893750    1.77115719539677
N         9.20913947277452    2.81156953616634    1.69523449709324
N         9.88594440906837    4.35227840874427    0.17098145731596
C         8.86802372350977    3.72930737679834    0.77964004072807
C        11.28305878841188    4.11829855104749    0.49279236668653
H        11.56937918801563    4.71318276787299    1.37171358347826
H        11.90190854714939    4.44253020132761   -0.34482700618281
C        11.47158790477438    2.63886395953389    0.79325419173647
H        12.50801965021628    2.41529928129519    1.04705347863266
H        11.19344144079517    2.05216588986702   -0.08428369853241
C        10.55164652942135    2.30929989850376    1.95755626970310
H        10.48455150126772    1.22622722282572    2.11021724241867
H        10.95260105729843    2.74873950830242    2.87848239944904
C         8.21284073148164    2.24449156017950    2.54848191218098
C         7.40051712271129    1.20561740287380    2.08795519002703
C         6.48393896233337    0.63516601665196    2.95555592584099
H         5.84570518242529   -0.16140828270624    2.60038695280501
C         6.36880299447141    1.06037550656981    4.27120377945049
C         7.19811129809916    2.07867820638550    4.71201507857768
H         7.13066535319193    2.41337864969530    5.73830381868586
C         8.11743649077338    2.68739756361802    3.86751221879621
C         7.50595571624074    0.74967091219694    0.66718994918260
H         6.81405950234395   -0.06362261500318    0.46374549219440
H         8.51891515852360    0.42292677822587    0.43294372192203
H         7.26473914385376    1.59871231645431    0.01296051053201
C         5.34203373566587    0.45197260937139    5.17715556203036
H         4.36267591806828    0.88019528079816    4.95824530439734
H         5.57555265373997    0.64703991122045    6.22113480038857
H         5.27833030480760   -0.62337063532405    5.02390088394756
C         8.97614469772244    3.80508206921217    4.38188022489542
H         9.20024467371752    4.51302352986203    3.58693126408831
H         9.91339725249085    3.41804573720583    4.78506905670916
H         8.46637367056810    4.33805656279554    5.18011128081937
C         9.62099369231040    5.37576031881607   -0.78550647038752
C         9.11957429817986    6.60476548091938   -0.34969879027759
C         8.85236272981184    7.59038656983175   -1.28796699961441
H         8.44728081544063    8.53604558523956   -0.95434264702054
C         9.10095251331088    7.39125854988498   -2.63722528418453
C         9.65100560755265    6.18315104337593   -3.03890910830538
H         9.86889229820599    6.02106813340321   -4.08491539582749
C         9.91828844999718    5.16774271410515   -2.13362471272525
C        10.53143336716639    3.88633973610728   -2.61179532366528
H        10.17503948343793    3.04567547753951   -2.02271233271321
H        11.61975260609623    3.92863689157627   -2.53807509032492
H        10.27543187508259    3.71013109904469   -3.65272366861518
C         8.89666121528916    6.86109392784385    1.11012253262607
H         8.15466732316811    6.16314084944733    1.50547434736817
H         8.54530774177936    7.87625070248164    1.27394661999643
H         9.82087822991651    6.71918160648122    1.67030335564780
C         8.78452394629646    8.45129164654845   -3.64903351595631
H         8.54070808880732    9.39375255622456   -3.16452580433461
H         7.93219884744252    8.14547043105793   -4.25614536169138
H         9.62861444111166    8.60840883878620   -4.31839313009247
C         4.07529945971226    3.93795295749476   -1.30087207611410
H         3.50773429242274    3.99214765915931   -0.37230386236319
H         3.72178134503638    3.07971311840798   -1.87680419231842
H         3.87916074134384    4.84586857065145   -1.87421287518845
C         5.53296692575558    3.80286371429256   -1.08471145623576
C         6.64521426298637    3.50179791669490   -1.61863454736117
C         7.31771161373720    3.13089057282660   -2.82969280272232
C         7.34999243754610    4.05252450582303   -3.88134477756256
H         6.93636135679478    5.03825094398908   -3.72478143867202
C         7.89503222056328    3.70593196550429   -5.10048219766397
H         7.90784672288756    4.42612285674809   -5.90737639656437
C         8.42049769828275    2.43780742732486   -5.29908243087727
H         8.84383174863232    2.16730880074242   -6.25589826567654
C         8.39656568632324    1.51939036517056   -4.26221154549686
H         8.80203723958105    0.52802081047073   -4.41199403808450
C         7.85586660512396    1.85978469836244   -3.03716020049262
H         7.83576160901951    1.13314118666744   -2.23772005068670
C         4.69449481915550    6.22268504681662    0.86840727088383
C         3.40789284085161    6.65863978751550    1.15311092563907
H         2.83273932882489    6.19024669314778    1.93799472758604
C         2.84657260947449    7.68594704106768    0.41420171660685
H         1.84109377192754    8.01620489020715    0.63452097137183
C         3.56391782654869    8.29083914796150   -0.60460596603336
H         3.11898863197118    9.09354607064912   -1.17524179755675
C         4.84669382451413    7.85636915855945   -0.89662891705079
H         5.40838953768947    8.31540721173738   -1.69797312804751
C         5.40421154851852    6.82376477691083   -0.16724994601539
H         6.39556263895056    6.45333413228639   -0.41167915536410
C         5.91508736986361    5.85048535125571    3.30527665404946
C         6.18288814810594    7.21544611677880    3.25968188223653
H         6.15327465088451    7.73616423724964    2.31292959575990
C         6.46889552717276    7.91545732095661    4.41756163240277
H         6.66840709763447    8.97655860596337    4.36753741980568
C         6.49174510885802    7.26412885533970    5.63918983105458
H         6.70780581588822    7.81302574783895    6.54431395785249
C         6.23320809352866    5.90430527358724    5.69339160527319
H         6.24519861347973    5.39012198510653    6.64479001319467
C         5.95568620960593    5.20180677740715    4.53546090001821
H         5.76021680059651    4.14003477878607    4.57814648301306
C         4.25122500522985    3.80629255566092    2.38092996314795
C         3.33612815892323    4.15216602741231    3.37115201315124
H         3.39456372062759    5.11654694943058    3.85658709900826
C         2.35934003572428    3.25312445696901    3.75904777404843
H         1.65128264864680    3.53005534173685    4.52767319261712
C         2.28618613151884    2.00005892471852    3.17140308316457
H         1.52113551309042    1.30237517300481    3.48147171077090
C         3.19928792339036    1.64465852935068    2.19331752433504
H         3.15010232328278    0.66658250889396    1.73660037927201
C         4.17578121976449    2.54291320585520    1.80549703733651
H         4.90173884463031    2.27519762048257    1.04694500637029

