84
CSD_code = RAYSOZ | q = 1 | S = 0 | Stoichiometry = C33H39AgN11(1+) | MND = 4
Ag        0.99092784064727   -0.66551930999452   13.10910726421215
N         0.14793088458884    0.80828358536171   16.42128705451783
N         2.89594177271656   -3.78008378154010    8.65428896237006
C        -1.15635866935776    1.25903674936036   15.98362945274710
C        -1.24475574790416    1.47540361137094   14.46261309669314
N        -1.12091196117953    0.23109058536019   13.76741103388897
C        -2.13249016778181   -0.24149881301998   13.16516412286522
C        -2.08340209071050   -1.51793022835760   12.47176999778789
N        -0.87989547902870   -2.05949730555605   12.25991804209865
C        -0.80550370712297   -3.22679982165188   11.62206966980220
C        -1.93885902321865   -3.90136208848758   11.15853131926808
C        -3.18525687157545   -3.34543927903638   11.37962974585895
C        -3.26249728580171   -2.13414996493665   12.04745622485750
C         0.52956778740018   -3.77511222539469   11.41139869181079
N         0.71134321188460   -4.77046991186936   10.66061125888919
C         2.01179086231729   -5.28653360784495   10.41199920350319
C         2.35027951758640   -5.09173901927320    8.91624860470172
C         0.11053130315093    0.06092400577872   17.66450010302372
C        -0.09897802899187   -1.44640210392103   17.41524851706218
N         1.12409952103996   -1.99076701824667   16.92755169686576
C         1.30568330645178   -2.07934779873264   15.68642638526123
C         2.55912189008102   -2.52408980191792   15.09561871127763
N         2.70472231906673   -2.23103777339686   13.80226468481549
C         3.80584466411604   -2.63136715637104   13.16504830155382
C         4.80781988049035   -3.36229562541061   13.80529477519788
C         4.66766791505308   -3.65003036308893   15.15245486129960
C         3.52949525127837   -3.22078009709001   15.81527412706088
C         3.89515419281547   -2.26826755431551   11.75545063406452
N         4.73457871638347   -2.79590651681416   10.97908713897433
C         4.76786419444231   -2.45191182674464    9.59839776675694
C         4.33364639075571   -3.67176516136368    8.75572310286132
C         1.18680431433795    1.81293399766682   16.35855193329821
C         2.45370592575540    1.28475590764858   15.65226845340412
N         2.22532494381508    1.14739022878235   14.24794255816747
C         2.78327572355566    1.96200383519684   13.45496219589328
C         2.61777805085329    1.89069330069785   12.01081078688609
N         2.01055430672943    0.81432686051978   11.50533064805902
C         1.94384204507927    0.67255678389516   10.18304625551382
C         2.45097027648191    1.62978586702569    9.30058132863731
C         3.03950213042181    2.76859476500283    9.81917318232336
C         3.13752846981028    2.89807254473488   11.19525879960865
C         1.36339032849589   -0.57400482325038    9.69412030553713
N         1.55106871479775   -0.95138691669040    8.50815744594145
C         1.07951858783747   -2.20381925140157    8.03052410234605
C         2.28616096653956   -3.05241782139863    7.56554224475038
H        -1.44845644759010    2.20339637009793   16.47370386334014
H        -1.88970017008520    0.49750639089896   16.25827241091921
H        -2.20352198787489    1.97037957359601   14.24364702029599
H        -0.42571265747430    2.11922839755105   14.13691034051020
H        -3.09494030792694    0.28225120554216   13.14486447591870
H        -1.80560154814707   -4.83508324047125   10.63784243173939
H        -4.08031189529039   -3.84144635596078   11.03691225264228
H        -4.21512088697062   -1.66797373355222   12.24531649848160
H         1.33622890928282   -3.25353540226170   11.94913679413047
H         1.96876984820363   -6.35966739666401   10.61517012546082
H         2.79085185482532   -4.82125238301528   11.03361857251008
H         1.42533368067534   -5.22347717284695    8.35195265875925
H         3.05143182927011   -5.87953285015998    8.61330305136367
H        -0.68652180346958    0.42325893191947   18.32812081239184
H         1.06363063914586    0.17373582420608   18.18364658567124
H        -0.32862245420743   -1.93281697115546   18.36515764967088
H        -0.93072896524844   -1.58474066102356   16.70935835027018
H         0.53019718183112   -1.80532982363938   14.93588857522484
H         5.66405894469820   -3.67896722718854   13.23292076968601
H         5.43196131119984   -4.20256767930858   15.67731638275655
H         3.36426701157551   -3.41323265718803   16.86254636822903
H         3.16654081828980   -1.50638125318375   11.43569751093538
H         5.80875316077546   -2.22392422466771    9.35493806835683
H         4.13095314083042   -1.58856343688757    9.35381095930838
H         4.79568083456672   -3.58813971003723    7.76328405178955
H         4.73110580785416   -4.56327572525341    9.24343536239086
H         0.82876664847477    2.68863601687110   15.81204103118808
H         1.48284042719492    2.14963990973722   17.36071334648548
H         3.28360786620731    1.97660913332855   15.86168666336210
H         2.68633434489143    0.29836201475142   16.05865887209319
H         3.45134256133522    2.75462399979071   13.81402327216060
H         2.37441723921918    1.44953818512659    8.24113983047974
H         3.43126546029405    3.53363436628489    9.16663196162518
H         3.61048208708344    3.76033925725054   11.63906111218407
H         0.80063280775667   -1.15063965752417   10.45002891762401
H         0.45937598965720   -1.99249767445875    7.15508655736513
H         0.49076275307273   -2.76011124854939    8.77463795145642
H         1.94400237621826   -3.73513010022186    6.77701503990719
H         3.01631641571861   -2.36777265305844    7.13055870901951

