94
CSD_code = RAYVEV | q = 0 | S = 0 | Stoichiometry = C33H55N3OsP2 | MND = 7
Os        3.02263715685134    2.87168627774487    1.45309716736352
H         2.47232659796404    1.51635289697964    0.93451010743638
H         4.11906837400400    1.76523841989694    1.45212587028925
P         2.26742434121571    2.14581957668780    3.62065421515071
P         3.78597770661456    3.42754502058985   -0.76358750925771
N         6.75937963455198    4.28889323963395    3.16609723098585
N         5.99314601946267    5.37279846401982    3.13289926870542
N         2.64554432119987    4.90459485834128    1.91962017201354
C         8.10266141819029    4.36226060315778    3.65911369252853
H         8.29071465164183    5.38937771682857    3.96621865568316
H         8.81603995249431    4.08013523980417    2.88060488393046
H         8.23523694492916    3.69731836936429    4.51591730303128
C         6.11015728559966    3.18914746351214    2.69406638526829
H         6.61320625901095    2.24126197124411    2.66690273267967
C         4.83464699714300    3.56026082352769    2.31866194588241
C         4.83275931531191    4.95037664232948    2.62684809352008
C         3.61947669414653    5.68296845114939    2.42625679909064
C         3.41729515131358    7.02449775187980    2.73878282323035
H         4.23740017121500    7.59653867773305    3.14052624251371
C         2.16473634841899    7.56863730835686    2.52111334672921
H         1.96882095237900    8.60636357267914    2.74957573943976
C         1.16042672912503    6.76599693798594    2.00735416131833
H         0.17859557879869    7.17490725834172    1.83200408716935
C         1.42659739237294    5.42635580664781    1.71325930134480
C         0.48411199864851    4.48225224878382    1.13869221629640
C         1.01833090607903    3.20960987903566    0.82087193012833
C         0.13148570029327    2.34464924567807    0.16435231148623
H         0.46868236581532    1.36397415516536   -0.14513272881394
C        -1.18039462098749    2.68132919005159   -0.11476397511927
H        -1.82004908173283    1.97150626047123   -0.62270828569851
C        -1.68466939112637    3.91759174165245    0.25975678726548
H        -2.71527591510243    4.17624185985234    0.06147319634523
C        -0.84594846357499    4.81830044067445    0.87773324470846
H        -1.22642404413040    5.79055821975356    1.15914469210482
C         2.17245710122704    3.30289003000040    5.10427864542362
H         1.70283426261702    2.70795772187858    5.89423548785875
C         1.27672707589051    4.51093357719416    4.82563378935784
H         0.85801330280815    4.89088911825169    5.75791449196338
H         0.45391951893726    4.26333329958366    4.15696780086011
H         1.85148264851959    5.31591685018079    4.37674485552422
C         3.53114180946907    3.77765714918609    5.61069242591909
H         4.08395555162565    4.28643687772350    4.82597369229272
H         4.13799395176846    2.95567339325722    5.98214344980372
H         3.38348291183873    4.48311333448749    6.42873237112617
C         3.35076858980035    0.80026844038741    4.38461885466438
H         4.30196804141779    1.34244155568351    4.48187520339058
C         2.94484968209163    0.26331029191708    5.75638476004111
H         2.03736289755692   -0.33066112706074    5.68524221136498
H         2.79700239055735    1.04540449517897    6.49496168170257
H         3.73576675274542   -0.39100764677436    6.12374993071011
C         3.61571681683907   -0.38772213138599    3.46044607593621
H         4.50750857946216   -0.91520175558505    3.79737368309671
H         3.77938770744088   -0.05444861661518    2.43903278880911
H         2.78912456010080   -1.09095783512224    3.47071792296004
C        -0.29291269306203    1.45719306969694    4.92207630844638
H        -1.28066124725466    1.04634888058425    4.71209328337899
H        -0.43609436517797    2.43838273180435    5.36518645666329
H         0.18626281778395    0.80909833355761    5.65026948105357
C         0.48421339075630    1.52018601544824    3.60810943024458
H        -0.01153277506339    2.25804697925781    2.96277529636000
C         0.39747717287756    0.17228545220391    2.89573936285150
H         0.63376866884651   -0.64074490467578    3.57784471556777
H         1.08569133780755    0.14349440350004    2.05366437444749
H        -0.61243175565410    0.01447781319426    2.52004927215803
C         3.26752162197527    5.00410594656729   -1.65305026822068
H         3.86217828818533    5.01868748077945   -2.57206199703937
C         3.61985042307921    6.25302915260334   -0.84338929255177
H         3.74641408562115    7.10805705783416   -1.50801991313253
H         4.53858046563762    6.12584032486195   -0.27314406689111
H         2.82034990041503    6.49642165500228   -0.14977294415321
C         1.79208510114559    5.03758595207503   -2.04095537305675
H         1.15517516405285    4.87133087842504   -1.17658515665102
H         1.55107812560409    4.28738097381395   -2.78970069190802
H         1.55160985499629    6.01614326145806   -2.45711857017728
C         5.66352336143068    3.63095637412701   -0.86540657905278
H         5.87838503226875    4.20320616695165    0.04727603512897
C         6.35395522733112    2.27662964002648   -0.72207084906447
H         6.37652872682902    1.75331427914870   -1.67447527198556
H         5.83471457862247    1.66225953241079    0.01099401291910
H         7.38291277806429    2.41454058886928   -0.39141168636085
C         6.26881192184542    4.39596565919880   -2.04146194943040
H         7.35440649420610    4.37141525891473   -1.94178072645526
H         5.96680646212391    5.43922738398540   -2.05333524750538
H         6.01518076374455    3.94517831419295   -2.99635455601101
C         3.26439095418411    2.17876915120307   -2.07898926313095
H         2.17177710229245    2.28684771154186   -2.03074300602630
C         3.58184383217777    0.72724526939546   -1.72120504091677
H         2.94231481209324    0.06386109989687   -2.30231568205338
H         3.40223536022630    0.54069036519431   -0.66551578305023
H         4.61377279438605    0.47813398630532   -1.94825278673418
C         3.72160181362360    2.43282130606576   -3.51463480386035
H         4.79067259428924    2.26371821403842   -3.61623935278756
H         3.48793445669356    3.43293047991150   -3.86689326893878
H         3.21521775014593    1.72596414872462   -4.17215612962566

