83
CSD_code = RAYVIZ | q = 0 | S = 0 | Stoichiometry = C26H51N3OsP2 | MND = 7
Os        8.14090383802171   12.07742257398702   19.93563140738411
H         9.33937987973071   13.00172914570207   20.37019638510479
H         7.62629655372847   13.45502743927254   20.46458463386015
H         6.58975999671999   12.29586599730614   19.92733442019961
P         8.18274623557284   12.99085476012171   17.71054689570277
P         7.96860207370978   11.23070801894188   22.20107247713990
N         9.88635376631625   10.83657630854536   19.45214160376968
N         7.35485972363978   10.28267064986533   19.28224364779871
N         6.11675962074920    9.86526968747348   19.15040170688936
C        11.17361781968634   11.18849714468022   19.48894083988242
H        11.39258172682211   12.19622002477690   19.81128001914052
C        12.21124154735895   10.34591680301927   19.14588520091306
H        13.22820773248596   10.70104076864474   19.19828210900081
C        11.92119144110009    9.04545059680595   18.74099990868968
H        12.71087821442294    8.36146262777859   18.46787045974184
C        10.60252405935135    8.65832976971959   18.69933642815256
H        10.31370655537264    7.66518242150333   18.39354296794556
C         9.60251849879084    9.57095743713391   19.05710471742235
C         8.21434147044416    9.26610259653078   19.01778837670702
C         7.45824378805065    8.12702582701823   18.70163843974726
H         7.81436357447246    7.14896727282724   18.44355675269978
C         6.15108388926900    8.56989672920342   18.80566640971919
H         5.23804732995505    8.02770967637464   18.64607016561138
C         9.88696441685508   13.12524567020719   16.90497148682842
H        10.32951357474997   12.14268535130871   17.12583182664961
C         9.96185149150192   13.33178219013046   15.39334921230716
H         9.48302492500709   14.25789521231160   15.09064959795489
H         9.51369952987322   12.51091408995102   14.84132386637170
H        11.01186088395120   13.38962772925964   15.10453523373907
C        10.73688344444635   14.17840966738857   17.61327961352662
H        11.79646856354427   13.96441530320228   17.47486163125949
H        10.51908233290220   14.19400007279561   18.67924923328273
H        10.53975123477606   15.16595750962468   17.20459286143076
C         7.35226066111617   14.68357033666987   17.63435888958972
H         6.36910288478368   14.43296073391714   18.05779470069727
C         7.14547886512700   15.32455117343353   16.26326886316940
H         6.51930050616328   16.20828085858335   16.38529312149314
H         6.64879334164981   14.66629768369909   15.55716195970767
H         8.09023758817303   15.65209856080438   15.83678469531836
C         7.98425712570508   15.71756894406900   18.56638645409402
H         8.84903205290225   16.18748900611261   18.10755075063119
H         8.28685735734976   15.26045948050462   19.50520363206540
H         7.25803141821835   16.49879180400932   18.78584526093439
C         7.23551343962143   12.11919100730529   16.34605266548211
H         7.37370842757066   12.73495886629913   15.45020533612826
C         7.78365429262875   10.72245385035163   16.05132030311065
H         7.37300652822283    9.99727968288855   16.74560122919344
H         8.87000297167241   10.67794163770978   16.11575149814974
H         7.49043413886782   10.41359497215537   15.04777531222335
C         5.74639135900412   12.02886685723777   16.66629119260385
H         5.24128528843258   11.46193785072201   15.88454152336896
H         5.28370670905494   13.01076255222144   16.72431124571415
H         5.59072289750192   11.51455294698414   17.61311328324399
C         7.25453391594961   12.51984923924231   23.37699898055576
H         6.29094929840733   12.73038617649091   22.89333361558442
C         8.04426502349287   13.83061508702378   23.39283276085688
H         7.38278051070886   14.65062171429368   23.66755221524929
H         8.46676965929105   14.04514777004455   22.41518046897477
H         8.84899085315907   13.79667293488090   24.12164312430548
C         6.99935348661575   12.08365492936372   24.81812567895934
H         7.90869185058574   11.72544479064475   25.29546742854536
H         6.23720492254985   11.31406580311156   24.88553230448577
H         6.64501209003935   12.94407843890535   25.38567904289731
C         6.77730520986858    9.77941524224281   22.37540399863473
H         7.01666482825468    9.16170198457509   21.50082702645822
C         5.34039593223918   10.26339190802448   22.19307379017346
H         4.68965191302336    9.41357892163562   21.99340129781788
H         5.27641302194715   10.93743702696752   21.34076305931238
H         4.97314068858870   10.77144890176593   23.08151467193293
C         6.89023872556877    8.86310229990639   23.59425003998668
H         6.72938950691231    9.38802501779795   24.53007581524286
H         7.85170238629256    8.35948144914615   23.64233957641204
H         6.12183769907056    8.09431295752294   23.50994367989032
C         9.46337000991820   10.55501418502466   23.11903607150977
H         9.09856478775152   10.22997535889964   24.09941027747228
C        10.54397462184704   11.61497016704604   23.31161374988704
H        11.49122086721875   11.13897375172958   23.56413042094326
H        10.29110383800164   12.30211136976336   24.11308820839825
H        10.67785763079665   12.18814222242455   22.39600546501440
C        10.05809872374541    9.34859078617887   22.38881776185321
H        10.72963121475595    9.67952473554261   21.60104334731743
H         9.29338916425145    8.71824561117951   21.93836313091357
H        10.63881003200870    8.73879333954967   23.08128053691495

