54
CSD_code = RAYVOD | q = 0 | S = 0 | Stoichiometry = C19H28BMnN2O3 | MND = 8
Mn        3.74919664813159    0.68713573982218    3.12589991397886
O         1.68110961796580   -0.18503233402045    1.24287792036626
O         2.21897674730543   -0.11856772303311    5.50141010462638
O         5.05245550895102   -1.92818676721853    3.08358446918056
N         3.64105419140698    5.51678341034259    2.50934673228742
N         1.77940162078990    4.59666447327568    3.51428437364733
B         3.08377339977347    4.31802793606269    3.03818555627398
C         2.64817880761248    6.57904150987580    2.55558572353553
H         2.47204692810311    6.99726433395383    1.55784149740293
H         2.97696999904048    7.39194684446146    3.21289042709464
C         1.38011495569515    5.93226503484136    3.11244612710919
H         0.99573950768314    6.51256808708423    3.95517014992665
H         0.59386711274681    5.88409339831724    2.34617615119553
C         4.91794359832101    5.85568899338130    1.88344567228966
C         6.05787937077835    4.99497476769006    2.44164117518701
H         5.99914030026189    4.95014353020864    3.52608289815541
H         7.01560538966267    5.43097011040941    2.16596517939263
H         6.02749501622340    3.98837442211733    2.04269530182701
C         4.82522180063658    5.65469982561471    0.36090373536392
H         4.57203806887038    4.62375014752839    0.13075567129639
H         5.77527490491846    5.89378883083310   -0.11065341761181
H         4.05852488757728    6.29821357820059   -0.06424336837524
C         5.29887758509861    7.32106472575331    2.15906536411716
H         4.60349363046454    8.01732922901791    1.69945047992965
H         6.28424814323997    7.51749233707110    1.74334182918805
H         5.33781753760988    7.50999011702884    3.22932504305262
C         0.81304594978472    3.75781123885591    4.22424344627154
C        -0.41888337024151    4.54243647736752    4.69683361677907
H        -0.14745525322838    5.32738513227583    5.39826435659098
H        -1.08696770781563    3.85517231799119    5.20996537378973
H        -0.96372397334442    4.98010642535454    3.86495256912654
C         0.32569277728658    2.63456874370949    3.29999364570462
H        -0.14467729220150    3.05611090579178    2.41461291290830
H        -0.39490954039414    2.00228792997245    3.81116574516256
H         1.16319217872624    2.01427536091615    2.98593527626156
C         1.48673858479136    3.17771698775169    5.47278120923712
H         2.35273071817366    2.58607654330481    5.19696924052358
H         0.79597425796015    2.53978166358570    6.01726638475305
H         1.81145475224582    3.98390861935096    6.12730201538717
C         3.88738261341836    2.94903562364601    2.98180597312211
C         4.78993224517748    2.42624035552447    3.95582680058831
H         4.88747802565380    2.79418148653371    4.97001508844129
C         5.70679532620165    1.54258006390530    3.33391277496565
H         6.60749440215996    1.14822291802366    3.78815306257756
C         5.37645743536901    1.46435662722528    1.95254750175567
C         4.24508890136221    2.30255578346287    1.75722601663005
H         3.83030876537098    2.55123791865537    0.78735731199678
C         6.22594674020815    0.87068325821124    0.86859311721496
H         6.95037265247733    1.61481366358153    0.52717219563103
H         5.62063273282042    0.57077295669380    0.01435546524405
H         6.77721294346146    0.00234146865967    1.22621389300972
C         2.46497949139354    0.16055727411497    2.01261469325588
C         2.80549726936428    0.24937949701163    4.57960265823896
C         4.50116309499770   -0.92058180009361    3.11554294442815

