54
CSD_code = RAYVAP | q = 1 | S = 0 | Stoichiometry = C26H23ClN2NiP(1+) | MND = 4
Ni        4.04051896491114    7.29797041085858    2.00441266195436
Cl        5.11152489274138    6.05007674048248    0.82280029533416
P         5.13887572783882    8.87087999033453    1.11464204739916
N         3.21377965119447    5.76180577449470    3.01266368941807
N         2.96858537262732    8.56733454754442    2.99276582075706
C         3.90652648733021    4.77931807947096    3.58390324459926
H         4.98239150779836    4.81119135907806    3.47015730952244
C         3.29388351271345    3.75193615147964    4.27974403426535
H         3.88977390235580    2.97237569903504    4.72494954010562
C         1.91169237092255    3.74576702138595    4.38106417419832
H         1.40053052313484    2.95704267133275    4.91070438752751
C         1.19483405332565    4.77073127432304    3.78501733635047
H         0.11798770218882    4.79763108048139    3.83804518444168
C         1.88097383819105    5.76421588026155    3.10262756163765
C         1.19425462272509    6.92051945408811    2.43496971037210
H         0.11309463212635    6.79043224067480    2.45311836404839
H         1.52375164736962    6.97210122238059    1.38795969377146
C         1.55733687011537    8.23629378045404    3.13419629389736
H         0.96498230119598    9.04457886170190    2.69002540283023
H         1.29816214836761    8.16676724523379    4.19767244894770
C         3.36877778616351    9.63236944920721    3.57554840079780
H         2.66045429590516   10.18522378578014    4.19846879218568
C         4.68842871880471   10.22755310037140    3.51915988602236
C         5.03338095198556   11.13130549291957    4.52821468518396
H         4.32710201165929   11.33349416038405    5.32014608399083
C         6.26911372526570   11.74970179456277    4.53673935199232
H         6.52432226663262   12.43224213734268    5.33193502081522
C         7.17247674128851   11.49724068819794    3.51657014936548
H         8.13563328456280   11.98354367716325    3.51143733975730
C         6.83804751697093   10.62424630834486    2.49295771722810
H         7.54028134837366   10.44371526020064    1.69210684448978
C         5.60798479398478    9.98122020708474    2.48269301582459
C         6.63628715585385    8.68378736355693    0.12062714622703
C         7.71997878526126    8.01138070864697    0.68564158723261
H         7.64046334350906    7.62645577686105    1.69418256107357
C         8.87622565437594    7.83379650181739   -0.04758745365604
H         9.71606071539973    7.31448082218749    0.38777015032403
C         8.95245888420542    8.31422856042049   -1.34718033225286
H         9.85389731865989    8.16812649118892   -1.92192656532659
C         7.87234715604957    8.97124127223911   -1.91233061168240
H         7.93117855331088    9.33692411280038   -2.92600234695826
C         6.70867866753195    9.15572304008771   -1.18490090618219
H         5.86315615780365    9.66039923287507   -1.62966526870654
C         3.99605834857644    9.88073023824267    0.12954606385809
C         4.12930440737608   11.26021258565597    0.01251306339375
H         4.93409374599790   11.77236806920762    0.52122285207275
C         3.22633368519639   11.96610998452037   -0.76283825147956
H         3.32614383597961   13.03647066391775   -0.85903096245603
C         2.19796909338055   11.30428376168914   -1.41665271402872
H         1.49879738563566   11.86265750995843   -2.01963808668160
C         2.06544038184792    9.92897580751450   -1.30104878584667
H         1.26682570869387    9.41614698297060   -1.81511140682176
C         2.96297801706933    9.21736347982486   -0.52667693159726
H         2.88735882751135    8.13741148715985   -0.42982928953927

