79
CSD_code = RAYWAQ | q = 0 | S = 0 | Stoichiometry = C40H34Cl2P2Pt | MND = 4
Pt        3.45604189656663    6.21966193136133   11.68590803892741
Cl        1.52817728375471    6.75057454024723   10.56634510786335
Cl        2.75945266122400    4.09041787794581   12.16674840383273
P         4.17003566566449    8.36082236434812   11.26388203327523
P         5.42469449088551    5.71041387073535   12.75338932297544
C         5.95458822974094    8.14085871011605   11.63432989009384
H         6.33874591781972    7.49607058060526   10.83164918052675
C         7.07847147059677    9.09675906194884   12.09659316578456
H         6.67459094129388    9.97849723676643   12.59781460613375
C         8.07711091231537    9.50121559653308   11.06235017452999
C         8.31422729119567   10.84832182509133   10.81354489629618
H         7.78961729777476   11.59538450128043   11.39232464165092
C         9.20831110977105   11.24055713144223    9.83375914276325
H         9.37852031110092   12.29133120071359    9.65191490511342
C         9.88103115305203   10.28878185109288    9.08721638255988
H        10.57780145795085   10.59257927299068    8.32057085466674
C         9.65557345611049    8.94409113861880    9.32853240820891
H        10.17642456480628    8.19530697772321    8.75017910138110
C         8.76063529280300    8.55238368738483   10.30723912680868
H         8.59404928374925    7.49698897982958   10.47570690331336
C         6.07022730721390    7.41440488248550   12.97999367711273
H         5.39733856649341    7.88145612872714   13.71259536020591
C         7.48633281213553    8.01542962218505   13.13920506471799
H         8.25204521855419    7.35488809013964   12.72802146243607
C         7.87187511675119    8.46581524076457   14.51025485303865
C         9.03811268468463    7.98910116398508   15.09807927422037
H         9.67118198575671    7.30862016619034   14.54625450746694
C         9.39345378771498    8.37286931377672   16.37866092767774
H        10.30186269841150    7.99139270344421   16.82077785049849
C         8.58610529799599    9.24196677530171   17.09181836047040
H         8.86075795571056    9.54177783489292   18.09192867149752
C         7.42352663438947    9.72537810605690   16.51562934242868
H         6.78791461527924   10.40371090465685   17.06546397863875
C         7.06814234329404    9.34070465002451   15.23585456552307
H         6.15313442401741    9.72562405439832   14.80624626886162
C         3.63027823890685    9.52086285443153   12.54636165047951
C         2.92537039971359    9.01280056459123   13.63256254472762
H         2.64743312324249    7.96012956097689   13.63361988656617
C         2.57433227188231    9.84596601466028   14.67938413613939
H         2.02525756971277    9.45383352036101   15.52223906240044
C         2.92863708107524   11.18531527590978   14.64142103677578
H         2.65721889652703   11.83730372392226   15.45845646010770
C         3.62288187028268   11.69600603272252   13.55466121847532
H         3.88969909198688   12.74253187160383   13.52852946709687
C         3.97461403948435   10.86837252912515   12.50393527621990
H         4.50782165141042   11.25802254444636   11.64700917388161
C         4.04209591652582    9.31722767869891    9.73525173178326
C         5.14918338416719    9.63371889576966    8.95518668478114
H         6.13785695789420    9.31185413059708    9.24839192314356
C         4.98024603265972   10.37500380971969    7.79899237476783
H         5.84134655779579   10.62683394746401    7.19707683806140
C         3.71594672449012   10.79007571950448    7.41407345088404
H         3.59098981197392   11.36522005711365    6.50850782284359
C         2.61079618244859   10.46337837512519    8.18515114338444
H         1.62485110277617   10.77942176088911    7.87900162509980
C         2.76937760542932    9.72871222139588    9.34452192076511
H         1.91712051040858    9.44692819184737    9.94703302718522
C         6.63207777781669    4.96535192898853   11.62662168644459
C         6.28377095589171    4.83420421919086   10.28635099896276
H         5.27472607784431    5.10048962310363    9.97604584352248
C         7.20871289229158    4.35589662055602    9.37581867505070
H         6.93958034574554    4.25111616717923    8.33548988058706
C         8.48089492195004    4.01063843867895    9.80383565604270
H         9.20521054344062    3.63884075835753    9.09426221982993
C         8.82707799643770    4.13160045552277   11.14149331995747
H         9.81834732019115    3.85426163077643   11.46942473821136
C         7.90572667300830    4.60660706223989   12.05701508801658
H         8.16148014821836    4.69593137537408   13.10442843761596
C         5.67300956875429    4.81802845613764   14.30565877527352
C         5.36278284766351    3.45962406353280   14.32026662855781
H         4.97176283903589    2.99907205682702   13.42385483852704
C         5.53022306645184    2.72967232305690   15.48148197629937
H         5.28505247489767    1.67828632664382   15.49597892050189
C         6.00735795074613    3.34779686360892   16.62727736987881
H         6.13772969951011    2.77614008281462   17.53428680638672
C         6.31176765804678    4.69919763280284   16.61362640656043
H         6.68196560011063    5.18189890179778   17.50646704942824
C         6.14133919334494    5.44071134070834   15.45788869592456
H         6.37823629120304    6.49475641736751   15.45467508129314

