62
CSD_code = RAYYUM | q = 1 | S = 0 | Stoichiometry = C18H40AgN2O(1+) | MND = 3
Ag        3.70398044122504    8.32671369146016    5.16663253013556
O         5.28860245036287   10.00878294765315    6.24201296915892
N         2.84624674102994    9.91285086886725    3.68324533711494
C         2.95924873324229    9.45608815796970    2.27763331409845
C         4.46107626090344    9.31296747308848    2.01166574846182
C         2.31429125778183    8.08267211986132    2.09201792235655
C         2.36472791376079   10.48943322422086    1.30851252874944
C         0.96516089099621   10.92988709965264    1.72427872829442
C         0.99629205937684   11.49086194477155    3.14184877268397
C         1.56287687096945   10.48431929318789    4.15520435784981
C         1.88762975473059   11.21178951198962    5.46389985622167
C         0.55604363475463    9.37984856558810    4.47303338396108
N         4.41943821104375    6.59292026721688    6.55821877997878
C         5.42701929533877    5.72844398326533    5.89969439701379
C         6.63718372895172    6.62942575140587    5.63325209054876
C         4.91626182290183    5.22209785107119    4.55157974507338
C         5.84931978216698    4.56886441936113    6.81517153835215
C         4.65191330354882    3.82734974235859    7.39968778978358
C         3.75399955943489    4.80100940991893    8.15561698657391
C         3.28114767820095    5.96238019275819    7.26786953669361
C         2.68387749859308    7.06514262684683    8.14763182280244
C         2.20325642957049    5.50802794501339    6.28372999234081
H         6.24625125900723    9.95764395012675    6.26822075031759
H         5.03673552929296   10.80991543317348    6.70547336897430
H         3.51184430919420   10.68242103376604    3.75581162200243
H         4.90058499245069    8.60496366807899    2.72261958185021
H         4.97259344468255   10.26816484815916    2.11363858119223
H         4.63907522970779    8.94343809925327    1.00638808530981
H         2.56740495037128    7.43529922886154    2.93818896502530
H         1.23560381120788    8.13919611459240    2.01104991022142
H         2.68985248153709    7.62032815886930    1.18348964511399
H         3.01413641295265   11.36826922866586    1.28280682602687
H         2.34269532010326   10.06611286163513    0.30444100830074
H         0.26551257278497   10.09691917668123    1.65834988248448
H         0.61200300391904   11.70140724397609    1.03939696330968
H         1.61921343329678   12.38911629099248    3.14733030787307
H        -0.00680621126403   11.78351987329490    3.45169044085622
H         2.31862627856954   10.50964861212623    6.18344619482668
H         2.59531380641479   12.02196874512592    5.29772499625587
H         0.98747533792980   11.63716141753645    5.89731656038867
H         1.04475940067000    8.59093258452604    5.05431101377311
H         0.12814458127149    8.93919969273752    3.58116189224456
H        -0.25840756267516    9.78558332927146    5.06664110197725
H         4.93787575090570    7.08030047480102    7.28916591127053
H         6.34077961401870    7.47562880845883    5.00663538202408
H         7.05492169925930    7.01113981064913    6.56311363407055
H         7.41731348554688    6.07781726832908    5.11736348499598
H         4.46299279115622    6.04868438464741    3.99432300413354
H         4.18393362031110    4.43117525638618    4.65603691224404
H         5.74554226651518    4.83213454924990    3.96801248783997
H         6.44860373978042    4.96630085507260    7.63844997894013
H         6.47873709389125    3.88005090753327    6.25188055029899
H         4.09302070361199    3.32297150045789    6.61168005676859
H         5.00581135156899    3.05743805378128    8.08601544822847
H         4.31315836023562    5.20551750639366    9.00317317567710
H         2.88414858131797    4.27856049890468    8.55343771112462
H         2.37612152908161    7.91308558316055    7.52625455670884
H         3.40538925479420    7.41809232842444    8.88210164583131
H         1.81296442705969    6.69924021898209    8.68289967452679
H         2.06063639279597    6.26990379344045    5.51018968458212
H         2.45091703272301    4.56961886082922    5.80270139401313
H         1.26122560512036    5.37215266153487    6.80752948014965

