59
CSD_code = RAYYOG | q = 1 | S = 0 | Stoichiometry = C18H38AgN2(1+) | MND = 2
Ag       -2.42413297125383    3.50469201136566    6.89087079055888
N        -1.88698773016927    5.29942863273373    8.23969948478863
C        -0.47605554179175    5.19135535027397    8.69107099451348
C         0.45876633291347    4.91894403759172    7.51239872462613
C        -0.42955752879759    3.97472521707944    9.62090034975892
C        -0.04929891228348    6.44462277558690    9.47029982945636
C        -0.38302280553521    7.73244928268606    8.72476116844527
C        -1.87479640881769    7.78400549515277    8.41221369005130
C        -2.34540586323694    6.56297116532708    7.60751122349368
C        -1.89244608374957    6.64400345346435    6.14956057216782
C        -3.87620892496493    6.50368314937162    7.62307114874566
H        -2.43362953574760    5.23430761388169    9.09988757411247
H         1.40464384909544    4.52940295169583    7.87828169773161
H         0.67053985515018    5.81110981405782    6.93580621544488
H         0.01520971246316    4.16792739569960    6.84444997310974
H         0.57926763864326    3.81458400551389    9.98902064323163
H        -0.74485791825337    3.07432961771306    9.08259143860631
H        -1.08195668258238    4.10899222942664   10.48169594944786
H        -0.56442533676671    6.45494984782540   10.43409623787541
H         1.02093395332696    6.39343216756295    9.66932531061031
H        -0.11717288002680    8.58678660481033    9.34767585841969
H         0.20340375264420    7.80855070865756    7.80922328816585
H        -2.42832118848829    7.82256961424856    9.35373744956785
H        -2.10980090239873    8.69034276299866    7.85457940600894
H        -0.85238294981211    6.93096384047255    6.05342741723975
H        -2.48914800181703    7.38263817230476    5.62159639270453
H        -2.03465870509522    5.67313861985893    5.65544317611543
H        -4.25995725297247    6.43987991107429    8.63946230753954
H        -4.22715655678912    5.63010624708580    7.06295577654358
H        -4.29630787814148    7.39298936155748    7.16310430837992
N        -2.96017920655496    1.71067273860049    5.54112577785808
C        -4.37109906652583    1.81881016452607    5.08976326876691
C        -5.30585447405394    2.09125682195483    6.26846889760903
C        -4.41757415962361    3.03544734137865    4.15994469957002
C        -4.79784071193469    0.56553681072281    4.31054856324270
C        -4.46412033835810   -0.72229277264982    5.05608406771128
C        -2.97234828358698   -0.77384547716752    5.36864168016569
C        -2.50173337541028    0.44717313976255    6.17335495927805
C        -2.95471400639853    0.36621878495275    7.63129324674101
C        -0.97093147272718    0.50648677081621    6.15781895061344
H        -2.41349186079660    1.77586217746101    4.68097110466703
H        -6.25173706052480    2.48082954036446    5.90260905881984
H        -5.51764673725568    1.19909076613704    6.84506038226824
H        -4.86210414474055    2.84223942197134    6.93635164899528
H        -5.42639995992883    3.19559912461697    3.79183194308925
H        -4.10226140306300    3.93583699067027    4.69826439698450
H        -3.76517554150426    2.90117245630814    3.29914897583738
H        -4.28270974887421    0.55521054800996    3.34675244252601
H        -5.86807261656532    0.61673828298300    4.11152942600378
H        -4.72996956524370   -1.57662844457751    4.43316520022475
H        -5.05054691446678   -0.79838952748240    5.97162199770169
H        -2.41881514100117   -0.81240435276923    4.42712178319835
H        -2.73734399351929   -1.68017416292783    5.92628703832395
H        -3.99477812004965    0.07924735888755    7.72742196795603
H        -2.35801574904070   -0.37241127748495    8.15928498650728
H        -2.81249179202928    1.33718455391219    8.12523961326488
H        -0.58717022174933    0.57028715109019    5.14143203709613
H        -0.62001188562936    1.38007531678848    6.71793916902833
H        -0.55083898358824   -0.38281230393494    6.61780431849036

