39
CSD_code = RAYZIC | q = 0 | S = 0 | Stoichiometry = C11H21F3O3Pt | MND = 6
Pt        3.46975038161680    1.02996706626744    3.62596465533473
O         4.37857307897226   -0.82892718937749    2.76493720337244
O         2.49266825103540   -0.47297413506255    4.99288492351143
C         2.43935428621893   -1.70308442577213    4.76640884466983
C         3.08307595525626   -2.49023863119360    3.83112935006010
C         4.00984373587025   -2.01259070750712    2.87251464733964
C         1.51692272860089   -2.50745423665318    5.71144360702159
C         4.61161812045320   -3.04135509759828    1.90537250671112
F         2.20922685420873   -3.43689571625202    6.40412714162020
F         0.56072520021104   -3.17625934863377    5.04247267439004
F         0.90181186239163   -1.73815315895318    6.61147657561879
C         5.60372275385887   -2.34071381310484    0.97407594196279
C         5.34199373877934   -4.13599542076717    2.69102076930755
C         3.47969984170361   -3.65074058311694    1.06990443618418
O         5.15470042217139    0.73822732271681    5.27152704112725
C         4.58115221294481    2.26293759128333    2.45446024611827
H         5.00395039708650    1.64372645111634    1.66202044919299
H         5.38945279732693    2.64711555312620    3.07923512411608
H         4.05224190603834    3.10056433081034    2.00724141586842
C         2.67186204513523    2.63548343115193    4.58342224454229
C         1.96257625145743    1.04151471656483    2.26162642144262
H         2.84651563872595   -3.54041616950934    3.84063879599111
H         5.63444690213442   -0.00354131409654    4.88653608466024
H         4.58619936674541    0.38739237194547    5.96797826287548
H         3.45671698547963    3.06682499683417    5.20666893999662
H         1.88105238232095    2.23973398033950    5.22230971951295
H         2.25869439935018    3.41467478178877    3.94847841535056
H         1.69439112038584    2.02423399782674    1.88066189201093
H         2.27332891837725    0.40595821054579    1.43054357267521
H         1.09638562711712    0.59770854363109    2.75609232882273
H         6.02471456774804   -3.05544785150218    0.27135932761257
H         6.41512257399690   -1.89364620850374    1.54374302061802
H         5.10814255600599   -1.55056166188640    0.41535165252362
H         6.13336004536390   -3.70580836227719    3.30211825817722
H         4.66602635657130   -4.68399801293266    3.34142080412748
H         5.79306780076972   -4.84267792295268    1.99769865909750
H         2.94569012252928   -2.87210890244178    0.52914651647118
H         3.89473096482959   -4.34916887033478    0.34630133042464
H         2.76739085021244   -4.18620560551664    1.69138619954023

