44
CSD_code = RAZBIE | q = 0 | S = 0 | Stoichiometry = C15H18AgN7O3 | MND = 4
Ag        0.99053623824212    2.04720860608016    7.21653434378142
N         0.94358103942800    1.70359026903734   10.10463621292053
O         1.98209811333014    1.52661768389818    9.44960998628729
O        -0.11936890967994    1.86246513999958    9.47248587241011
O         0.95469931081280    1.72250083114152   11.30964544153088
N         1.54203702934012    4.27807319952335    7.77458066284624
C         0.64059894085222    4.84506979952086    8.58720393691200
N        -0.66970833699196    4.57929271268035    8.33658097103340
C         1.01991042835255    5.73732942860741    9.60337130873879
C         2.35210939322163    6.03161287052568    9.76963732390698
C         3.28437858922265    5.45009093163867    8.91398499241500
C         2.82813036660638    4.58669184099921    7.94159438661806
N         2.45700227534187    0.85192252330689    5.77704812024568
C         3.72821544357321    0.64000544676653    6.14460222159126
N         4.12175550300615    1.12974140305637    7.33888641950240
C         4.63792859781328   -0.01353725159910    5.28955664904562
C         4.21137564225710   -0.43877599861361    4.05609512318051
C         2.88739165658364   -0.21251146373966    3.68321270037025
C         2.06194578865901    0.43314188798406    4.57753323204105
N        -1.10577343627617    1.75667114154034    6.05663830778729
C        -1.92698531610984    0.75876495484290    6.41654770610453
N        -1.77600778538295    0.25288493446978    7.65517084719852
C        -2.88307617368957    0.23699488099504    5.52194152408156
C        -2.96689546741253    0.75637725746785    4.25410801974652
C        -2.10981353708588    1.79380060050938    3.88824143882481
C        -1.20796738893015    2.25163184627281    4.82373223404854
H        -1.30981043436528    4.68123633777305    9.10705255998286
H        -0.83209283219455    3.76641245140197    7.75192090339927
H         0.26412619787409    6.16388828591043   10.24419863237109
H         2.67024868730565    6.70214516532645   10.55404662562882
H         4.33725026803964    5.65689079188518    9.01376484820889
H         3.51295318291730    4.11064964402076    7.25187503147997
H         4.99425458138078    0.81280709642230    7.72471829607881
H         3.40172538031775    1.38757668875283    8.00290813433462
H         5.65398039492315   -0.16943499542369    5.61827424304647
H         4.89113889555207   -0.94366561338656    3.38555399473503
H         2.51473651773060   -0.53346083575798    2.72448438078362
H         1.02643725855436    0.62827426096207    4.33358651450541
H        -2.46246285259147   -0.38397013955183    8.01737549810140
H        -1.20013329795454    0.76350268977360    8.31573642868022
H        -3.53103604525372   -0.56257182335690    5.84671701306742
H        -3.69051782620404    0.37034712139127    3.55126835359248
H        -2.15039139955021    2.22980459783248    2.90367792962076
H        -0.52990468160909    3.06321279914206    4.59386062923452

