77
CSD_code = RAZCEB | q = 0 | S = 0 | Stoichiometry = C36H36Cl2P2Ru | MND = 9
Ru        2.32204579172215    5.46596199717661   11.26675528778565
P         3.54295825157025    4.56846715159505    9.57645546352105
P         5.43779583218665    3.61843228647603    7.15739675667838
Cl        4.36105141546200    6.11055858475760   12.25451869385442
Cl        2.57427580658772    7.25795151261690    9.73546165383110
C         1.76118449763743    4.26926406466337   13.09708186233842
C         1.22520160771072    3.63875141374999   11.95798477680156
H         1.42201594177747    2.58374754979934   11.78969955921986
C         0.34782269428950    4.33619949055178   11.08486200167960
H        -0.12176015272023    3.80541171200304   10.26657442591543
C         0.04130418126694    5.68840466633794   11.30581182850232
C         0.55916495438748    6.31801075267084   12.47623658660785
H         0.26711050068587    7.33821309801528   12.70154488671721
C         1.38905744989866    5.62089751458595   13.35201274798676
H         1.74903250925548    6.10052329403223   14.25699674469860
C         2.63923506034297    3.54013420942135   14.06880650290309
H         2.13244440763289    3.43359375866617   15.02898344037797
H         3.55806523084600    4.10500768582270   14.23038618996855
H         2.89992103376865    2.55282411888842   13.69298014488800
C        -0.93821300336657    6.43659723119673   10.43347558279514
H        -0.77892709458269    7.50896203171358   10.59298635633405
C        -0.74662851872104    6.15619865083262    8.94359016062908
H         0.28934981589159    6.33326861257903    8.66105511109102
H        -1.37866210654982    6.82289858780021    8.36231601731412
H        -1.01054748825861    5.13247217664018    8.68816553759901
C        -2.36124375368189    6.08284878848739   10.88135306109110
H        -2.54934862093542    5.01908272507066   10.74718265170090
H        -3.08493575503524    6.63856131881536   10.29041190351664
H        -2.51002491670386    6.32918611720776   11.93110990256304
C         5.04366793389181    5.48134671938554    9.13793421731011
H         5.25078766342690    6.35233498849201    9.75204556097131
C         5.84166016574782    5.08827053868703    8.14995978556914
H         6.73708274256128    5.64356271931661    7.88493563265833
C         4.18823672139992    2.90842448403348    9.98104421216037
C         4.88820426264971    2.85051333295795   11.18493086065080
H         4.98230950442509    3.75231493733103   11.77893641389718
C         5.46120417608642    1.66426434669969   11.60329105673429
H         6.01058993120777    1.63066240655032   12.53271440733431
C         5.33360552934729    0.52281977207399   10.82832127100896
H         5.78492698446656   -0.40464619656536   11.14876377446765
C         4.62728111724048    0.57316831518017    9.63857988190093
H         4.52820140362203   -0.31504985575154    9.03172913735419
C         4.05581326074540    1.75892661407570    9.21059683051060
H         3.52041288542824    1.78516607113767    8.27247051723347
C         2.56156019307867    4.41256151588856    8.06089831533294
C         1.58639233320156    3.42146510974896    7.99463814871727
H         1.48176088591365    2.72218661531410    8.81379195058297
C         0.75979717461439    3.33148454250719    6.88949665615083
H         0.01364539669922    2.55105733217551    6.83552977456920
C         0.88419322206880    4.24475312885569    5.85542035247265
H         0.23528102939236    4.17620515014026    4.99465640948445
C         1.83459860282878    5.25037879950872    5.93149575883541
H         1.92130629284381    5.97305464031658    5.13335996944281
C         2.67286802454287    5.33852457400270    7.02791195437387
H         3.40359678683359    6.13091360010629    7.09694015082240
C         6.79532532252104    2.51909428335299    7.70771328833047
C         7.44731493916974    2.66661160501941    8.92560432974875
H         7.21981014218043    3.50915513356593    9.56243162756026
C         8.38391762794592    1.73010338571584    9.32545079575802
H         8.88952875264749    1.85197932593876   10.27228427901515
C         8.67235091167698    0.64146082532650    8.52087028093946
H         9.40419341012447   -0.08709156145756    8.83764315657286
C         8.01850743923922    0.48566053868108    7.30875492197306
H         8.23993100752442   -0.36400541934874    6.67926206592815
C         7.07894857435053    1.41513686527546    6.90814283895583
H         6.55930671706505    1.29886068384343    5.96568078256548
C         6.15183502404169    4.20568373241181    5.57191498730414
C         7.51323632485745    4.42992004521819    5.39660622206051
H         8.20099645519003    4.22995431694239    6.20728335738321
C         7.98472298998027    4.89595850777559    4.18368660146484
H         9.04288671297101    5.06837049904800    4.04888262672029
C         7.10521073080862    5.14226450272604    3.14096968995706
H         7.47916687077484    5.50705997919947    2.19553812588373
C         5.74961904635849    4.91774780793042    3.31035476053285
H         5.06386078188896    5.10650844979234    2.49715457776322
C         5.27416285455316    4.44842034522276    4.52194644549586
H         4.21763756750653    4.26635084349308    4.66593539863800

