77
CSD_code = RAZCIF | q = 0 | S = 0 | Stoichiometry = C35H36Cl2OP2Ru | MND = 9
C         0.47372138763791   12.44686711186858    3.22284712402887
C        -0.23290445682863   11.65394761157335    4.14453948849090
H         0.00021730884031   11.72601198751780    5.20264099546440
C        -1.31225987876756   10.83270190294816    3.71966815630505
H        -1.89116740374965   10.29399903353707    4.45955546978153
C        -1.67664748251060   10.76799937303450    2.36544062526655
C        -0.97277159216992   11.59028767524585    1.43619716585104
H        -1.28690166122567   11.60052253661212    0.39757204625039
C         0.07046440875999   12.41284455893091    1.85531499881879
H         0.57130783595891   13.06300222005500    1.14467601943388
C         1.57239467431130   13.37311146391703    3.64900030000779
H         1.29405276207667   14.40644405962486    3.43860900002442
H         2.48283124247414   13.14917285055745    3.09088490514596
H         1.77918507909332   13.27084100162796    4.71212248349771
C        -2.87692389393118    9.97952978250625    1.89981817658740
H        -2.80179711981340    9.86192142100793    0.81293650563950
C        -2.94329789212823    8.58189033022414    2.51381072429901
H        -2.00568981460460    8.05665939081539    2.34191144176241
H        -3.74467711739978    8.01476013269847    2.04705150991046
H        -3.13284091004276    8.61896671418731    3.58421222762617
C        -4.14358155732774   10.78293971629819    2.21764390151864
H        -4.24914582251024   10.91813846923073    3.29259166546777
H        -5.01939315983304   10.25520512871010    1.84868988733549
H        -4.10815808712271   11.76460161133168    1.74830601558825
C         2.65763170044273    7.53871759631440    3.09274132521364
H         2.20024961300370    6.93797309567615    2.29876333637749
H         3.38666734709752    8.20792366718554    2.62663836356659
C         2.18406595447282    9.16666706557948    5.36255473832171
C         2.93287426047390   10.33648143033699    5.26454726821208
H         2.98501450522684   10.84747815883918    4.31121221168654
C         3.62067420631302   10.81659508673512    6.36325238606655
H         4.20669976912143   11.72032719113724    6.28030698315514
C         3.56060000330322   10.13516737111883    7.56780751588168
H         4.09644332337435   10.50854858101888    8.42815425969129
C         2.81669891344266    8.97145287137642    7.66761042852457
H         2.77564896373036    8.43598799604169    8.60466614229701
C         2.12869403851214    8.48146983293542    6.57140482600661
H         1.56369424723192    7.56610037386399    6.65213172890024
C         0.06666622206301    7.46603692399246    4.40655411224989
C        -0.73850294836633    7.87605188182083    5.46810501198174
H        -0.51967629669876    8.81047120670366    5.97015615129937
C        -1.79340618480533    7.08932487511585    5.88877380167197
H        -2.40615036745481    7.40704346875137    6.72080131514801
C        -2.06308837236918    5.89283766278412    5.24362942304326
H        -2.88609222047136    5.27605705317500    5.57350369724555
C        -1.27924832350191    5.49264699449119    4.17490731426144
H        -1.49379298055776    4.56408374686962    3.66733151291849
C        -0.22117404593237    6.27573356946282    3.74920266774996
H         0.37238793517263    5.96194741627093    2.90498752477994
C         4.72746844865198    7.34846191560944    5.19925280370318
C         5.41037968390822    8.44268017104069    4.68681000596704
H         5.15678618369941    8.85376821052812    3.72126025538033
C         6.41140458309414    9.03537651622388    5.43593444614145
H         6.93775400765922    9.89106262254215    5.03927796982146
C         6.73857976974510    8.53972524401902    6.68698877888349
H         7.52175636300788    9.00821946771741    7.26490298365725
C         6.06001306427282    7.44556016795794    7.19799444624053
H         6.31195174554968    7.05811102429344    8.17434215150718
C         5.05929918180622    6.85107190371619    6.45290792478096
H         4.50874118468682    6.00208598880440    6.83292097959121
C         4.39241345444068    5.28293746256855    3.23463005079688
C         4.07825404338655    3.93328114594152    3.29906465053836
H         3.30122272017036    3.61702651019470    3.98031782957151
C         4.75368099783384    3.02579449278370    2.50268042902302
H         4.50882682239037    1.97476974405254    2.55053214017135
C         5.74467875971547    3.46997618917540    1.64313899736998
H         6.27391752202290    2.76460064922801    1.01931794188700
C         6.06128983098246    4.81866917897571    1.58071000093624
H         6.83537158531343    5.15961854287064    0.90893216417564
C         5.38852542852092    5.72823564843523    2.37507046829474
H         5.63539901607871    6.77857012882297    2.33127174460207
Cl        2.77213314667635   10.56294264646520    1.78336305060580
Cl        0.34350864735619    8.45077647608454    1.06073585510276
O         2.50844669886054    5.69630172844646    5.18722747363504
P         1.36375204234403    8.59349466409333    3.84379940543874
P         3.44661421299328    6.40550527501751    4.31063249963501
Ru        0.55673474323060   10.27898508183921    2.54259767271202

