56
CSD_code = RAZCOK | q = -1 | S = 0 | Stoichiometry = C25H14F10NO5Pd(1-) | MND = 4
Pd        3.50508006600140    1.59151760453997    3.48841174251396
F         3.48344010180719   -0.91615714885972    4.92715272144759
F         1.58009579099290   -2.92097586428143    5.25519532052645
F        -0.90585126641007   -2.58015693731709    4.17247855123126
F        -1.50988010172989   -0.29621896153345    2.81981617616445
F         0.41001713831389    1.66841877371442    2.53511342106005
F         2.67581806416887    1.93459582811228    6.68555762865317
F         1.61535737304843    4.17268823758098    7.89850542962160
F         0.99269576628432    6.35545540280628    6.39111409700039
F         1.41592247093567    6.33427754185138    3.69604462007150
F         2.48673843929489    4.04551919388815    2.51241624526987
O         6.11884611639055   -0.94221401499173   -0.03844812143360
O         7.43470211599150   -1.39358061271603    1.71583820061486
O         7.41945969259205    3.26734164474710    3.40251048501310
O         1.22476482703377   -3.87286504146803    0.59881717351996
O         5.22899253427346    2.81710193086441    3.50559111604107
N         4.53100199776177    0.29094659426286    2.20531617227129
C         5.82905045447399    0.30840506761791    2.00611018912739
C         6.72422936370040    1.28093876607622    2.44656924690944
C         6.35666016123979    2.44456872229781    3.13837685564030
C         7.10164996775253    4.45564508463861    4.09877045686259
C         6.43883178706719   -0.73403958436551    1.10463067812742
C         8.08749983554083   -2.38266069335315    0.93713237215856
C         3.76309220433137   -0.77021572004008    1.71681273057272
C         2.60775120205869   -0.47791817271842    0.99413142624026
C         1.74514991098546   -1.48113419374161    0.59592629111399
C         2.02651104895855   -2.80549120859703    0.91294865660130
C         3.19579390077638   -3.10597708020179    1.60920854201430
C         4.05720128048216   -2.10453866257801    2.00242783060528
C        -0.04279696996495   -3.60641268591648    0.05526368854257
C         1.97607312349625    0.39557356890253    3.72646257504644
C         2.22851679399459   -0.77705919985247    4.42857620130282
C         1.29290881456162   -1.78405286572225    4.59382019803089
C         0.02486079267305   -1.61223533036235    4.04563341970598
C        -0.28057301226516   -0.44324161841010    3.35762010732124
C         0.69242598346499    0.53560453247738    3.22063925005041
C         2.59258339325402    2.96323547115031    4.57672213758219
C         2.36248301037354    3.02147353230528    5.94306740466515
C         1.82629152324679    4.14160618225570    6.56652307956660
C         1.50713094876221    5.25717446712848    5.80071313257292
C         1.72225494867619    5.24229411321015    4.42464620350807
C         2.25600056961976    4.10063332158951    3.84955701480963
H         7.76860105584013    1.17337920077990    2.20610426759248
H         8.04348641724973    4.98091353252315    4.24435559769224
H         6.40862965695753    5.07100688117535    3.51883386392562
H         6.63959452651597    4.22737864531356    5.06313350877460
H         8.81701430331931   -2.85431891232001    1.59089044462153
H         7.36290051311247   -3.11543101883618    0.57405581024773
H         8.58118212584347   -1.92419271121281    0.07706497602507
H         2.39177363916128    0.56061882558071    0.76433199452578
H         0.85493877687805   -1.21643770791671    0.04709345813762
H         3.39879077307067   -4.13820749187841    1.84952712360732
H         4.93516964156716   -2.34480881868018    2.58558666565504
H        -0.53803664232691   -4.57334647963590   -0.02779128242656
H        -0.63242063750190   -2.95449434967000    0.70787375834417
H         0.02979368626199   -3.15252958022480   -0.93948085497173

