81
CSD_code = RAZDEC | q = 0 | S = 0 | Stoichiometry = C36H39BCl2P2Ru | MND = 9
Ru        2.15226677860465    1.20773580281472    1.38187655512670
P         3.77495394762088    2.77912652739192    1.66304258316096
P         4.02879164588017    6.61464578963342    1.61291730398687
Cl        0.97663814924250    3.01616931181422    0.41874569102429
Cl        3.17157244625547    0.91275977345037   -0.73159979457048
C         0.41141113284041    0.91565127850123    2.83408578070044
C         1.60653072064263    0.82071190715036    3.56100334506302
H         1.74576009592505    1.42097091284506    4.45376840418165
C         2.61514970024082   -0.10039099307613    3.17399071064497
H         3.50708470518488   -0.19472791695024    3.78636211750347
C         2.42447775401814   -0.97560327954028    2.08704158494554
C         1.19857963433913   -0.88750427908532    1.36705029837244
H         1.00707294086911   -1.57939370623478    0.55525409708679
C         0.21915985644174    0.03841596830366    1.72550959794734
H        -0.72529481568945    0.06519411693564    1.19172827770588
C        -0.67149320089824    1.87325923776501    3.22322141023532
H        -0.41552647776322    2.39937695845580    4.14018040160559
H        -1.61516450840504    1.34590688835745    3.36075925522624
H        -0.80750782808750    2.60907126198571    2.42766820029658
C         3.40962850803816   -2.09443211767433    1.83917645123679
H         4.38280251329835   -1.78400060338799    2.23869371852389
C         2.94194724774277   -3.32206681313015    2.63280625672291
H         2.87523256441214   -3.09523705119825    3.69531646339805
H         3.64440114765021   -4.14045763762820    2.49647045262881
H         1.96246179332437   -3.64783465192882    2.28799405730166
C         3.58069340906827   -2.44159455760507    0.36035279767996
H         3.72393966561585   -1.54060638642086   -0.23362183332800
H         2.71232954642736   -2.97391857609217   -0.02120356462612
H         4.44858744170756   -3.08381852790135    0.23183915673228
C         3.85338725959059    4.01916435252636    0.35161136889715
H         3.83618837815268    3.47558533497408   -0.59662485922461
C         3.94406636075598    5.34669614768849    0.30995763069242
H         4.01150644811920    5.79620653717811   -0.67915599852139
C         3.51364415934643    3.54023849964401    3.28630634752177
C         2.26774363221869    4.12452992220511    3.50356324620221
H         1.56909241102701    4.19373468701492    2.68007884366621
C         1.92852028829657    4.58487948299263    4.76163748596400
H         0.96546672936476    5.04696397619672    4.92275378406250
C         2.82016010511283    4.44535671021822    5.81358629871078
H         2.55547333763246    4.80319780208783    6.79785139401900
C         4.04558001142591    3.83340447935836    5.60756206723075
H         4.73463206973005    3.71347670003219    6.43075573524110
C         4.39435077282659    3.37440190470612    4.34956372097517
H         5.35016227188793    2.89572203098569    4.19243441911546
C         5.51296791757584    2.25094296860064    1.64232886545458
C         6.51648179541882    3.19032331566176    1.86535693857447
H         6.25328367920498    4.22090886428266    2.06024029306278
C         7.83991500288018    2.79138160048180    1.84517497798058
H         8.61973616231005    3.51727823371025    2.02240669493959
C         8.16607893078743    1.46690736475439    1.59412332657965
H         9.20225423432336    1.16234106690459    1.57396089112099
C         7.16715535885264    0.53641043220926    1.36047521895473
H         7.42276636053916   -0.49216915317551    1.15225411260316
C         5.83967769936502    0.92671086707923    1.38493509976167
H         5.04762083497762    0.22044276441065    1.17781631349176
C         2.29599079091860    6.84822846594260    2.12076242344854
C         1.22948354639963    6.43728805670196    1.32853635228966
H         1.40671642276937    5.91050000348295    0.40325583692460
C        -0.06673676555552    6.67418602935647    1.74976715263074
H        -0.89193184733871    6.34067007705745    1.13887283512388
C        -0.30445924240631    7.33052461749320    2.94672588560576
H        -1.31901005957181    7.51734610333031    3.26816598062220
C         0.75814599690672    7.74477378299396    3.73427004064748
H         0.57351155049090    8.25497401139874    4.66889547053840
C         2.05683084463630    7.49871710251456    3.32636065678555
H         2.89619837716553    7.79839772633198    3.93764370235170
C         4.30493626273046    8.06349041960234    0.54324381863409
C         3.51738311209243    9.20550936451649    0.60791610476166
H         2.66256981744958    9.23542240870042    1.26892036927636
C         3.82310174836527   10.30396471527517   -0.17702787374915
H         3.20282948347722   11.18705733897167   -0.12722618249058
C         4.91928612623815   10.27450180568922   -1.02196074043671
H         5.15522999702267   11.13366075276609   -1.63218891814233
C         5.71796511703240    9.14337892622293   -1.07829740021766
H         6.57990618908250    9.12150552998733   -1.72908111920489
C         5.41523820399058    8.04494124519877   -0.29642432583940
H         6.04532330509780    7.16555434659472   -0.32415770014468
B         5.41671531657611    6.69685202983888    2.96556371495314
H         5.20975453326455    5.86236946382395    3.78430013994368
H         6.42644623095666    6.54320379216117    2.34725592875144
H         5.30487621610894    7.81343635459135    3.37592385305940

