26
CSD_code = RAZDAZ | q = 1 | S = 0 | Stoichiometry = C10H12FeNO2(1+) | MND = 8
C         1.66210739867113    4.14033102266848    5.31493877443878
H         2.50728447293751    4.12178696134351    4.64609308602149
C         0.84401476463544    5.24822524917473    5.57732687794075
H         0.95417350296642    6.23485774124711    5.16062089031647
C        -0.23328520436446    4.80935076320964    6.40043540047164
H        -1.09395935728576    5.39967070750980    6.67139722406284
C        -0.10796815915284    3.40400329232901    6.57520475467098
H        -0.83211015193667    2.76168272346470    7.04720488045876
C         1.08241858167121    2.99542794103758    5.94988889688082
H         1.40310761641341    1.97593621138496    5.81302901048963
C         1.80063394108247    6.06612795954297    8.26501666945503
C         1.07254135760914    3.94682200365352    9.14721557580081
C         4.66704555051978    4.86936876481123    7.44127696774369
H         4.57519531635860    5.71966630594463    8.12229797633702
H         4.46692010416340    5.21189288407800    6.42457566072861
C         6.04985639389325    4.28723547511418    7.53303536609621
H         6.32586027803782    3.90947181249749    8.50847989129850
C         6.89472032840870    4.23044014765033    6.52141444252821
H         6.64522494958049    4.61356295568982    5.54568167845738
H         7.88120514053693    3.81679201212639    6.63220879620429
N         3.63903319594730    3.87008885358752    7.81857935401198
H         3.84744958071638    3.56610381014026    8.77169317103672
H         3.78942641172247    3.04643277843432    7.23103814866243
O         1.83950409911743    7.09795215964101    8.73193880758534
O         0.66316125860478    3.66144888418601   10.16491384539749
Fe        1.60763862914543    4.46332057953119    7.54629385290405

