63
CSD_code = RAZDON | q = 0 | S = 0 | Stoichiometry = C28H27Cl2NO2PReS | MND = 6
Re        6.04946212751436    8.71004244768000    2.78501394894157
O         7.16519073333372    9.45138235924767    1.81365226285144
O         4.96376700212013    7.83495876332257    3.85700358385604
N         7.83385366307572    7.61633313765989    3.89243439546582
P         4.25387985271659   10.01280336687485    1.82171686623173
S         9.16723885408059    6.66775872903321    5.86332247553471
Cl        5.88387100726256    6.85294058259609    1.28089034133002
Cl        6.19893707899193   10.41252713044612    4.46474076516849
C         4.57691876462302   11.79574573055495    1.86619959725732
C         5.87668673296166   12.25919751146100    1.68769433047367
H         6.68087956996241   11.54371347163572    1.56892074542300
C         6.12737775393091   13.61906448234933    1.68927811132578
H         7.13699438005571   13.97872737631910    1.56086192613557
C         5.08665247468752   14.51734781041602    1.86404080828039
H         5.28492705331827   15.57897083860633    1.87162407657532
C         3.79126197051545   14.05667975746441    2.03499318795085
H         2.98064878366319   14.75724544029459    2.17224668671486
C         3.53100716272679   12.69817690780323    2.03576831942745
H         2.52063860345555   12.33763760549897    2.17141229860533
C         3.83022770368330    9.64804748550195    0.09850304357293
C         3.87059291947822   10.63485601112512   -0.88133284183656
H         4.15223139355597   11.64484185385914   -0.62040363265251
C         3.55350172281752   10.31730054075809   -2.19020579030159
H         3.58723117247027   11.08463049619237   -2.94954421868263
C         3.20253818457657    9.02073091760909   -2.52834998992721
H         2.96291533793940    8.77710093957537   -3.55282565119060
C         3.17048698990456    8.03409652745888   -1.55567448799244
H         2.91201181465024    7.01976660335143   -1.81941345400313
C         3.48403439493963    8.34192526521057   -0.24514283518503
H         3.49784310175097    7.56679253684133    0.50721593495433
C         2.73767349524996    9.79846618813580    2.79231149752965
C         2.78026146526005   10.20644930549202    4.12560566939039
H         3.69326714685768   10.63640167003477    4.51910934751392
C         1.66754143547436   10.04699941670026    4.92978594587735
H         1.70089516786224   10.36323036666909    5.96199591515188
C         0.51180602590761    9.47968632725894    4.41440580389605
H        -0.35476821995920    9.35035778688816    5.04587512534433
C         0.46778471401611    9.07916380921887    3.08944911595649
H        -0.43300726251126    8.64022580731928    2.68617603846752
C         1.57643083348935    9.23670388629376    2.27437019199435
H         1.53683546503312    8.92776474993770    1.23973170154249
C         8.92100928732835    7.01528143821402    3.31775284953691
C         9.22681133403026    6.97191742215897    1.95969568100514
H         8.56639027235747    7.45381026714731    1.25505636260670
C        10.37334563592134    6.31622915329863    1.56819037777641
H        10.62612365673850    6.27019846223493    0.52043049439452
C        11.21572756802699    5.71100704376053    2.50102124057559
H        12.10624755578093    5.20324800327773    2.16291242301627
C        10.93635223929271    5.75546545011992    3.85235377701804
H        11.58910605931205    5.29787531405200    4.57872799372375
C         9.78596442421512    6.41468577158701    4.25370488056191
C         7.83911498453405    7.52582407385180    5.17485629065538
H         7.08889552102004    7.97184411438544    5.80208435829580
C         4.11128182863190    6.97921887812422    4.50604036360025
H         3.10553075245659    7.11977977883999    4.06386252398565
C         4.54862295091379    5.52594613633147    4.27649491888437
H         4.68378714572009    5.35073829356712    3.21053566591042
H         3.79710185438360    4.84466272149287    4.66558581015966
H         5.49644346401103    5.33818008084449    4.77873034444354
C         4.03281196823189    7.31325765917896    6.00239488632940
H         4.95181704335176    7.01755546005394    6.50463494617362
H         3.19974966336171    6.78373207189686    6.45620125395683
H         3.89143621894336    8.38375046489250    6.13367540043456

