64
CSD_code = RAZFAB | q = 0 | S = 0 | Stoichiometry = C31H24AsCl2N2O2ReS | MND = 6
Re        7.07177107208532    8.08626296155357    7.51755645939909
O         7.58457181652635    9.63421275229264    7.85797442480925
O         6.95053245920579    5.91329306460925    7.11318946697508
S        10.98921957780430    6.75879076263645    5.34826526641246
N         9.08491242924573    7.67780556591489    6.80734391473243
N         6.51019829740551    8.13279680668155    5.62919449601750
H         5.55221585356859    8.43005313407685    5.44566858614519
As        7.38254567794254    4.75737398024831    8.21537753409493
Cl        7.41691485285888    7.18502683236100    9.66582576456101
Cl        4.86313518866338    8.15691058282803    7.99357270698686
C         9.28111896541699    4.72055038783454    8.66218770510470
C        10.12316119856121    4.33291403418229    7.62736988874354
H         9.69168232351989    4.06074389664919    6.66596601560250
C        11.49292517856681    4.30031684134206    7.82225554721889
H        12.14630316514088    4.00603086636888    7.01382086291520
C        12.01979531018183    4.65184073146358    9.05410587533801
H        13.08810002940431    4.62955082444220    9.20859043992028
C        11.17947401018661    5.03438036741894   10.08643936777060
H        11.59293460408313    5.30990075532851   11.04503169924071
C         9.80816802757468    5.07134256685876    9.89571671760018
H         9.14711833919915    5.38968475896851   10.69159051157212
C         6.14275129073931    4.41166633115130    9.66372754636864
C         4.83478851259020    4.84062768420989    9.49303015261123
H         4.56602288049734    5.39334464972316    8.59695879484067
C         3.89768569574257    4.59239456430616   10.48062088515062
H         2.88235515234397    4.93863598407247   10.35768501004058
C         4.26946739703500    3.90930849595283   11.62705638304037
H         3.54068355328942    3.71939517070027   12.40114490377435
C         5.57475424051141    3.47365612219873   11.78897143375268
H         5.86056479250365    2.94364628099368   12.68602647472144
C         6.51864922409659    3.72288514786068   10.80700881012872
H         7.54457892852446    3.39412017309090   10.92908625152372
C         7.20766490360898    3.13356139777008    7.15110339058734
C         6.83075647169219    3.21486511776199    5.81820754101682
H         6.64813479140982    4.19258106266871    5.38392473779240
C         6.69178514334648    2.06294496374015    5.06225118570759
H         6.39892298839390    2.13049382479594    4.02455049948217
C         6.92721202898121    0.82703188088764    5.64041114978844
H         6.81740237481239   -0.07296508851952    5.05360697703290
C         7.30113647222126    0.74000914224210    6.97281560710069
H         7.48206360162188   -0.22604139005788    7.42113860367738
C         7.44051610006366    1.89074092175297    7.72799171141795
H         7.73257910679927    1.83789191256036    8.77262963755572
C        10.22759547578873    7.86416968687438    7.54385750573691
C        10.33279135431814    8.48192760229520    8.78843277938544
H         9.45315614252996    8.89510648029796    9.25562747156109
C        11.57421247544115    8.57457891033981    9.38059592192777
H        11.66312026894983    9.05049746367311   10.34462233788159
C        12.71598975398985    8.08039398283499    8.75420734039580
H        13.67530788358696    8.17052322103477    9.24018749226089
C        12.63835322017650    7.49713966798085    7.50541137818391
H        13.51611865000036    7.13437167999403    6.99475113012605
C        11.39265438881980    7.40093910679589    6.91057652507167
C         9.29917091062794    7.14888816162912    5.62796859730794
C         8.35373411773933    6.93157842506670    4.57488740447226
C         7.03484737370686    7.47749418539899    4.58607172703105
C         6.24130019728679    7.27776340128159    3.43111631852342
H         5.24966738139403    7.70809554609422    3.42642172334274
C         6.68025729008026    6.55007966859263    2.35824325111484
H         6.03593778406337    6.40910922715189    1.50318916293565
C         7.95476213905692    5.97969518175291    2.37221752380123
H         8.29893218090085    5.39183368406965    1.53609400756632
C         8.76561503817549    6.18224086653247    3.45869836753321
H         9.75720194540926    5.75149702638716    3.46893109557726

