103
CSD_code = RAZGAC | q = 0 | S = 0 | Stoichiometry = C52H40N4O4P2Ru | MND = 6
C         8.29145381117265    5.39809367929607   14.01382440713361
C         8.97163581516266    5.32165418044177   11.97039269646386
C         9.23716879254350    5.53462422027210   10.62067999050262
H         8.77208284003986    6.34933825485917   10.08933305849284
C        10.10795832534540    4.66415190640532   10.00209657042740
H        10.33573125448000    4.79910436521520    8.95577905549938
C        10.70703336096472    3.60645909400633   10.69267173634642
H        11.38306075339035    2.95193700898529   10.16328255388526
C        10.45701290488857    3.37906396712783   12.03037862215030
H        10.92031054863215    2.56314453493142   12.56358843863878
C         9.58278915209118    4.24908814969482   12.66491226245735
C         7.59233522207222    5.91463957556835   15.25024803448359
C         5.29219430659480    6.03961896497397   11.20343982088810
C         3.90884783154843    4.56174506565362   12.04597392615786
C         2.96933095122543    3.57978593159352   12.32337791499436
H         2.46039378265160    3.05217521704026   11.53135999917682
C         2.71540801081535    3.31270781231863   13.65300296214602
H         1.98920426690453    2.55631123817397   13.91021294574885
C         3.37406281697001    3.99660550677989   14.67912640626285
H         3.14083276001327    3.74982798031157   15.70362064770682
C         4.31013492264433    4.97311481870303   14.41674749872680
H         4.82147525137628    5.49933768482924   15.20663562131380
C         4.57983319072801    5.25780946795722   13.08115134626757
C         6.03919200584495    6.93087688934312   10.23786181608838
C         9.82991003944105    8.09032057901195   14.47912681801271
C        10.77082133910117    7.27794702624787   13.84615716443519
H        10.84055533369356    7.28208941712530   12.76541744933910
C        11.60714153519481    6.46475418205813   14.58664829035467
H        12.32737380841194    5.83603473213991   14.08166171387903
C        11.51393111033554    6.45008373874827   15.96934884639636
H        12.16019347773693    5.80716789230939   16.54883945267726
C        10.59042533261424    7.26174326585922   16.60509201414109
H        10.51345411408766    7.25189572893427   17.68184081007266
C         9.74960317736048    8.07657514050582   15.86691372949645
H         9.02808531905863    8.70014208401195   16.37317796805690
C         8.24140403393409   10.45364468707792   14.42029385341500
C         7.32452858066803   10.24284936965102   15.44888550104101
H         6.91657801124434    9.24955186919420   15.58469122592717
C         6.93971861501562   11.28413025500451   16.27116029287744
H         6.23083306199232   11.10870674765108   17.06756787097028
C         7.45696173487159   12.55286543309209   16.06343372981268
H         7.15762808559948   13.37163676520239   16.70129028863442
C         8.34684870913907   12.77293261798828   15.02637357969023
H         8.73677180618416   13.76529909411974   14.85180562686403
C         8.73944915354457   11.73138225713010   14.20282838913651
H         9.41837864376083   11.92317286100949   13.38539316000741
C         9.79449438614272    9.58278613303251   12.15272255465286
C         9.53384805763920    9.37745641452834   10.80397863609417
H         8.63101604822204    8.86050170809936   10.51254194286827
C        10.43391459604136    9.81568941359983    9.84702028690453
H        10.22623605911376    9.65250074687416    8.79951441162849
C        11.59846720413212   10.45778996772737   10.23116800728828
H        12.29905678970538   10.80370982875433    9.48501638220193
C        11.87454189628021   10.64449836489317   11.57739402583405
H        12.79162375835180   11.13030895738589   11.87872163297717
C        10.98263030865485   10.20337048333018   12.53625018364750
H        11.20879254366042   10.32398429595843   13.58754750327948
C         5.67549809599512   10.87578764010985   12.72122533254745
C         5.25669784113713   12.00166486941811   13.41758151378700
H         4.57812482347312   11.90867534663499   14.25237202096487
C         5.72843125348092   13.25142628616761   13.05331526446452
H         5.40047107387458   14.12398151435304   13.59955802433635
C         6.61863096874273   13.38857961100049   12.00229456327473
H         6.97987126278873   14.36804123814406   11.72481817940749
C         7.05689107022815   12.26594566617281   11.31815513407895
H         7.76571483534423   12.36372133432494   10.50846885617159
C         6.59341583949750   11.01636982485864   11.68175001109647
H         6.93957225354228   10.12642550439098   11.17214841125028
C         4.02733607943116    9.31006347259867   14.49052735061288
C         2.88529275213606   10.10148593008296   14.37508502540438
H         2.68800803682888   10.62500678937120   13.44881942202173
C         2.00180475313613   10.20096839393909   15.43286751062698
H         1.12065032028528   10.81987802190377   15.34144588018957
C         2.24007359443718    9.50243405907564   16.60707733742650
H         1.54581097529174    9.58214568647848   17.43101484896935
C         3.35844797090086    8.69406785064408   16.71577777547386
H         3.53605592820123    8.13538144251507   17.62316480881417
C         4.25038370146275    8.59623594573316   15.66085148249740
H         5.11729567482271    7.95549443418059   15.73206059177775
C         3.94895186181275    8.81975406434478   11.77026018396098
C         4.05752251536398    9.32979778579915   10.48155382934466
H         4.82579926001846   10.05157031529242   10.24831386722604
C         3.18495647428898    8.91272130939848    9.49141088054947
H         3.28443063856542    9.30803067374343    8.49177829092890
C         2.20045656023577    7.98147348717238    9.77303648462039
H         1.52931641549609    7.64988465599130    8.99432555561170
C         2.07867332102663    7.47546862449303   11.05746327836343
H         1.31082635720352    6.74978505642271   11.28740153799099
C         2.94700457916131    7.89013178659255   12.04908350624679
H         2.85417965518942    7.48749178248577   13.05021020816348
N         8.18018536900380    6.00731699446872   12.85359643782809
N         9.12046002962152    4.33059503897467   13.95173201004135
H         9.34876220940531    3.74963975226520   14.74202616143025
N         5.42705806093640    6.16743403103972   12.50540481174970
N         4.39392236477929    5.08236993632005   10.87550563262181
H         4.13882475382127    4.85182195685970    9.92895070768545
O         6.91801660521969    6.96690819452309   15.04737738286026
O         7.72667800600241    5.31093193575164   16.30491427284343
O         6.77627117923982    7.78832952530805   10.80754471690232
O         5.88001758464897    6.76993615071206    9.03636512720503
P         8.62870391959876    8.97951514934526   13.41713672999681
P         5.17947233238388    9.15861169235811   13.08674345903549
Ru        6.85423129290175    7.58516166550482   12.96716390702024

