82
CSD_code = RAZHUY | q = 1 | S = 0 | Stoichiometry = C38H34N5O2P2Ru(1+) | MND = 8
C         7.76248628486201   30.35771904431887    7.73999005020193
H         7.23682906037776   31.14408917696073    7.21922761171976
C         4.45298731285854   26.79043655153550   11.23574499428151
H         4.73605819848359   26.28156085505552   12.14749691870065
C         2.88039267401405   22.20114016726896    7.40955817041169
H         2.04687432200438   21.82447678258049    7.98360369678277
C         5.08906409958957   27.92664845583131   10.68727404634500
H         5.96049136350069   28.42667752057088   11.09002344923985
C         9.63041419719461   29.62332041090134    9.05688100109414
H        10.55920971017240   29.83739594256985    9.56345993818479
C         6.81425313872170   21.34868037707416    8.63919644358637
C         7.98639578070640   21.57692697842321    7.91485272074417
H         8.32159174001073   22.59194323163388    7.77524368861607
C         6.36045184847612   20.04547912831014    8.84965943377888
H         5.44425057840678   19.86137718024041    9.38896350514780
C         8.70381875877311   20.51299925273526    7.41004838918319
H         9.61501355322307   20.65841118467844    6.85002758939825
C         8.96007373989795   30.63074767606104    8.38369202785915
H         9.36666091988417   31.63004220132162    8.36412637406886
C         3.20358678954031   28.03564387964010    6.06799666092091
H         3.91148932617954   28.56170377423719    6.69624383005085
C         2.24239004085093   28.73139625756003    5.36136758802432
H         2.19639812018936   29.80803874274076    5.42584168303313
C         3.66334922090589   21.33184348073027    6.66337432390180
H         3.44338194331578   20.27513469754164    6.65937474710955
C         1.33379509730109   28.04232919337185    4.57215229150001
H         0.57885406473895   28.58351518040034    4.02317567933859
C         4.72308317424197   21.82048925850900    5.91843765752829
H         5.32814254230949   21.14362178850731    5.33414476591180
C         1.39263920723045   26.66106026975519    4.49011192707262
H         0.68574068002628   26.12605376378147    3.87454093996152
C         8.24085917262720   19.22153820594523    7.62769589769684
N         5.14310763954531   22.48941687901402   10.11116933522810
O        10.00171413667857   18.35342394927038    6.47999445126567
C         7.07476100228299   18.97919761721462    8.34132518370505
H         6.74759419065927   17.96054904808080    8.48524254325608
N         8.99356709194826   18.09663854312906    7.09347112881666
O         8.55314401081512   16.99191032160185    7.30151873997466
H         4.81326232135905   21.74140285259659   10.70054929557260
Ru        4.99531632938377   26.30964763103645    9.11919984575824
P         7.16409634184678   26.40721783652856    8.43452890520560
P         4.58138292116067   25.81965480784793    6.92477713045073
N         6.18150204288073   23.72653892970348    8.68992385271100
C         7.91934985877870   28.05878091124404    8.43524268077090
N         5.30933835616727   24.44587811165543    9.38981112736211
N         4.67942372052494   23.73580167853283   10.25285583427912
C         3.25330831643271   26.55851803350465   10.50441719273743
H         2.48379018289426   25.84827336365883   10.77167157606843
C        10.39668845981814   24.09272824169179    9.45223970681146
H        11.28110415580875   23.68882679722256    8.98306812579087
C         8.38060083011892   25.39001980420918    9.31732473819969
C         9.52018376475655   24.86847550108059    8.71304543945246
H         9.72978130771063   25.07783836738905    7.67440574767467
C         3.26654066736690   26.64610921181984    5.98782682377342
C         5.01631952284260   23.17443386758267    5.91919222258237
H         5.84820415059300   23.53503495461485    5.33453231188206
C         6.07789137883514   22.49135070160601    9.13435705029326
C         6.06598973414452   26.20542909159984    5.89320066580154
H         6.00583202106065   25.68014578228614    4.93507730012928
H         6.01866294915125   27.27873458516271    5.68282549964699
C         2.35498194113568   25.95815487818304    5.19455909256904
H         2.39847858051611   24.88087398031846    5.12657638078370
C         3.15602206561240   27.55381382474546    9.50742067407324
H         2.30404197858972   27.72018227360954    8.86089351564107
C         3.17406741348114   23.55070554116821    7.41956289870051
H         2.58132804365916   24.24256148244664    8.00937576189155
C         7.33478990020579   25.86452309524762    6.66458616046719
H         8.21038808558379   26.34013325157913    6.21287332285120
H         7.47423044617564   24.77999904621414    6.69622986934286
C        10.14686830433818   23.83723839825331   10.79099671029218
H        10.83406981584502   23.23165408619738   11.36138673489141
C         7.24142000227390   29.07925317931585    7.77182906477300
H         6.29800089829347   28.85750668368162    7.28917299744157
C         4.24371806564456   24.04872464671329    6.67344018171583
C         9.02131524651505   24.36844711606722   11.40102361860959
H         8.83338276150040   24.18092494955484   12.44768309910300
C         4.30505601864464   28.38981447141810    9.59413413716018
H         4.42989960101678   29.34584978416155    9.10402522294571
C         8.14256578813651   25.14261798744748   10.66629515667723
H         7.25748103784870   25.56598433775674   11.13027734096407
C         9.11547623978592   28.33839878116035    9.08697868661702
H         9.64143369900304   27.55682017311889    9.61605687588004

