51
CSD_code = RAZJAF | q = 0 | S = 0 | Stoichiometry = C21H21N4O3ReS | MND = 6
Re       -1.95674438971897    2.73779316848369    8.73296955796678
C        -0.89183829198896    2.07555644460396   10.22260228324972
O        -0.20205217967459    1.67713548257831   11.04781161250724
C        -3.64784078704050    2.24248396859231    9.55907250976140
O        -4.64438850671395    1.95241484731827   10.05717468172667
C        -1.98762843769363    4.52481027114525    9.49623780460051
O        -1.95282757794142    5.60397889710921    9.88783854274161
S         0.17129703147623    3.49006459354292    7.48407850800512
C        -0.52854394142002    5.01015774728227    6.99049506705614
N        -1.59558070905697    5.09039492005401    6.23615895860338
C        -2.45637580120588    4.11825816836427    5.96710695107790
N        -2.84789529225642    3.21682073477615    6.82541883121640
C        -3.60322680025366    2.07236022979147    6.35674806126907
H        -3.92040124983621    2.16644513999075    5.31207976048513
H        -4.49499094962970    1.94041464585040    6.98872766145558
N         0.13976826287855    6.14354760895270    7.22813680579827
C        -3.02169402097212    4.22332782711621    4.59389006871589
C        -2.18379994323109    4.09388426765906    3.49355977140115
H        -1.13485889934462    3.88348772394213    3.64670917395821
C        -2.69409013826140    4.22815949385626    2.21481230432604
H        -2.04041166703465    4.12004478395119    1.36174583696246
C        -4.03807661048210    4.50665924298404    2.02916567389866
H        -4.43395861258863    4.61583556911080    1.03025616575267
C        -4.87313379444163    4.65139196827389    3.12477016175439
H        -5.91964670695477    4.87753832518974    2.98248340848223
C        -4.37000383544957    4.50754609889518    4.40532053144421
H        -5.01649191449350    4.62641255964944    5.26353076604331
C        -2.70038425541920    0.87233436290044    6.51857550888060
N        -1.87192309643310    0.91440457756787    7.57020264361954
C        -1.01401301600198   -0.08817581767262    7.74410366298343
H        -0.35523367491482   -0.01594845739694    8.59961842041872
C        -0.94351287311874   -1.17194855016922    6.88865177956511
H        -0.22609717797323   -1.95545933321774    7.07146196932440
C        -1.80368310193824   -1.22335105689436    5.80268265256042
H        -1.77703618823223   -2.05270844319308    5.11253457084601
C        -2.69292589173642   -0.17909287081643    5.61523673544190
H        -3.37421670837561   -0.16906117425798    4.77824881123347
C        -0.41726710723304    7.38940210968323    6.73561384440469
H        -0.73027656694992    7.22887346655588    5.69848690818704
H         0.37704802249783    8.13814854535227    6.75811859284154
C        -1.62031110860400    7.86648342521550    7.54367288820434
H        -1.97082066615081    8.81700559023430    7.14945257312158
H        -1.36369286632524    7.99120873043626    8.59162584372398
H        -2.42470248171117    7.14025623309807    7.46945990227880
C         1.39179806396638    6.19506200812251    7.94813111318490
H         2.12798582724435    6.71668634453569    7.32522870966900
H         1.73502420535454    5.17009889956652    8.09889736453732
C         1.26538702537227    6.89059878171042    9.30028610442751
H         2.21547666836801    6.83117688689172    9.82468374114070
H         0.50536175329514    6.40123240134913    9.90388277971545
H         1.00165097834805    7.93874861133204    9.18284141942934

