43
CSD_code = RAZJIN | q = 0 | S = 0 | Stoichiometry = C22H16Cl2N2Pd | MND = 4
Pd        1.89050691703209    2.32812465964277    8.55579762017023
Cl        2.86244807569770    0.30693929442792    8.10896685633652
Cl        0.87632210352343    4.31937673421008    9.04364092085815
N         0.61587576060261    2.03418078304066    7.09119101778452
N         3.10932164805992    2.58751632195295   10.07356147903860
C         1.50796508361309    1.42506473725954   11.44456264606239
C         2.80799695092921    2.14701097079593   11.29708473009963
C         3.66637370430246    2.35561867408348   12.36797230263065
C         4.86066322011421    3.03471542724673   12.17138971097957
C         5.16839097246506    3.48567610608518   10.90429488965366
C         4.26147744050126    3.24081697809221    9.86987759741504
C         4.53081578963173    3.67116825374063    8.55321031627001
C         4.93807279139720    4.10576216509194    7.49693844863755
C         5.30193279849970    4.55885673042725    6.21804540486423
C         6.50879047744940    5.21958601582849    5.99264998333194
C         6.83709543368982    5.64487596465633    4.72019359094137
C         5.97024385322328    5.41792698446465    3.65774863796103
C         4.76987958236260    4.76602389463253    3.86259198100916
C         4.42140579604829    4.33037638771271    5.14035002149045
C         3.20724552272184    3.66844935319554    5.38719836303174
C         2.18808038284542    3.09638099803324    5.71048362365025
C         0.94083628524618    2.45354735413593    5.86063813476915
C         0.09032330311188    2.27332948662217    4.76673457544983
C        -1.12097400193600    1.64480095503579    4.96994542133704
C        -1.44647517827342    1.21756717251633    6.24966409247985
C        -0.55514052194785    1.42610641383610    7.29327872764132
C        -0.84701447174927    0.98909990777549    8.69215418503669
H         1.50746596790955    0.55694307647276   10.77396029529702
H         0.69259302241273    2.10243145093839   11.16259243630672
H         1.35773608482652    1.08915601252823   12.46718332052009
H         3.39760074063335    1.98867428951355   13.34588446924555
H         5.53625500090886    3.20578139177933   12.99554473311291
H         6.08232247204207    4.01734033361534   10.69317312325732
H         7.17884003505313    5.39222580199336    6.82184921512850
H         7.77286476023695    6.15606232128343    4.55021128831608
H         6.23615945183126    5.75336014738618    2.66646483504996
H         4.09213241119742    4.58742370291906    3.04094685724429
H         0.39493670284807    2.62647537543004    3.79462350108982
H        -1.80419239079053    1.48812912260874    4.14922434569588
H        -2.38607513755074    0.72414304361184    6.44169851596218
H        -0.82907272165105    1.86817247863015    9.34800069547393
H        -0.07194816709246    0.28160438994471    9.01156987114882
H        -1.82027795197907    0.51027833680370    8.76030721822025

