44
CSD_code = RAZKOS | q = 0 | S = 0 | Stoichiometry = C18H17MoN3O5 | MND = 6
Mo        3.19442547720251    2.31503810272014    2.54038454509357
O         2.80870077560565    1.06611107272045    1.22662674367886
O         3.03015109594717    3.07039466741588    4.32462795743120
O         2.86344182811798    0.48550229320781    3.81717611642437
O         2.93358411732776    3.71450943318949    1.70967442536390
O         4.80596311920267    2.02759260506847    2.72851792957860
N         1.00279381660250    2.04154821223833    2.78212375632365
N         0.30371493811699    0.95321907726812    2.51113065907723
N        -0.91664924014404    0.94164050989011    2.95941148459254
C         2.04380810972895    0.01850849931283    1.08485453562185
C         2.43132560870706   -1.05529442159665    0.26196494877232
C         1.63765897973198   -2.16855058071056    0.11853671835315
C         0.40912546478034   -2.27961124897290    0.77791345801559
C         0.00002519381328   -1.23311621487981    1.57890564589451
C         0.79315919485117   -0.09538354152664    1.73615332912866
C        -0.43692075690557   -3.50282467863615    0.59905817637816
C        -1.07313493598811    2.12193581598482    3.58065570824109
C        -2.16668411784223    2.68836626372916    4.24595996319240
C        -1.99932809706622    3.95080803076889    4.75305060726147
C        -0.79266400155490    4.66398186064505    4.60640803920440
C         0.29627133472803    4.13251500576483    3.96243045589038
C         0.15383252950832    2.83525925507070    3.46074045897686
C         4.10558570533772    3.83932041148970    6.28411687389261
C         3.67014744957191    2.71716009192591    5.37980658436844
C         3.93717710706828    1.39896218534501    5.69870895228359
C         3.51462352005652    0.33163362140828    4.87621665527650
C         3.84243696990018   -1.07211181238549    5.31779333212634
H         3.38214015251199   -0.97174753760384   -0.24366077515182
H         1.96821531511700   -2.97861940098095   -0.51516858342496
H        -0.94488567253543   -1.26672387816956    2.09887733532171
H         0.13349842934172   -4.39918951110004    0.83611122895614
H        -0.76694343538934   -3.58403189702016   -0.43576894192958
H        -1.31337075894863   -3.46527386364939    1.23937297132085
H        -3.09363303823625    2.14636956321138    4.33653746129108
H        -2.81825778911939    4.42758388358369    5.27067295461697
H        -0.73705329473367    5.66453264414812    5.00836536101400
H         1.22057870760588    4.67263989142340    3.81278547699228
H         4.85567924788626    4.42509368563838    5.75194714066299
H         3.25925004517904    4.49421114049334    6.48668553995641
H         4.52374336484509    3.47043848885589    7.21459345199341
H         4.48567479077532    1.17019913116728    6.59792970146916
H         4.91163327175683   -1.23246177978484    5.19032954326043
H         3.59880650976225   -1.21635539480505    6.36734444614618
H         3.30345296777471   -1.79027968186280    4.70449762706141

