75
CSD_code = RAZKAE | q = 0 | S = 0 | Stoichiometry = C32H30N6NiO2S4 | MND = 6
Ni       -0.68975684875788    7.48624041718601    2.06894450459962
S         1.28104392530855    6.70183047648569    3.80088316820206
S        -2.30427674768840    7.95704950965249    0.31571225031330
S         1.96111682454573    3.85693555416232    3.66631593746719
S        -4.96850878014724    8.91175636633202    1.00465309595266
N        -0.46480030362549    4.73293879889809    3.28164769620488
N        -1.39081212704614    5.59295014195424    2.86531673403183
N        -3.04507549809726    8.71461027071437    2.78074146208814
N        -1.83704594784722    8.33902765308460    3.20781832392552
N         0.63019562954273    9.21270316191198    1.89459594113363
N         0.49436603057491    6.72287451573139    0.86969647326544
O        -5.23200143818227    1.20813926817955    5.78354250577229
O        -3.63048534464161   11.82483101261321    8.46560547184943
C         1.01073153334299    2.36877679359297    3.23121240623077
C         0.74391346570524    5.12155540344674    3.54677279104384
C        -2.65143920432775    5.32742346276413    2.98996889238614
C        -2.61641302532433    3.39086609103979    4.58552985180167
C        -3.29065687971052    2.39572522337289    5.25166555932949
C        -4.66751564445768    2.22654874272034    5.08128158438279
C        -5.35433894621035    3.09025874579603    4.23121109917571
C        -4.67221610771719    4.08992763848497    3.56890047495419
C        -3.29231442667560    4.25979520583423    3.71944823073683
C        -6.61638226393669    0.99035991653983    5.66361258036770
C        -5.78739218506770    9.41163115700679    2.55046900180551
C        -3.34232659192847    8.53403703404425    1.52662438433074
C        -1.43749837897941    8.65556364242586    4.40226112089086
C        -1.49974600378122    9.53119393759425    6.67437871441966
C        -2.04141973602537   10.31009271306378    7.66569812660678
C        -3.17431339877756   11.09359084366324    7.41662219467463
C        -3.73892881487780   11.07731472749968    6.14405321387659
C        -3.19311909547598   10.28689178896917    5.15187024864410
C        -2.07091488156791    9.49091224162017    5.39133394829746
C        -4.76959938411571   12.63109007663076    8.28557159134558
C         0.68912964334392   10.41538948838494    2.42328020062857
C         1.76140293576292   11.28774769763379    2.21697051915258
C         2.80838846953600   10.88768510891356    1.42234961499857
C         2.77484832687896    9.60985910473486    0.84295706787202
C         1.65213847365905    8.80002071520133    1.11717257813878
C         1.57336854267146    7.48063165119735    0.56458269629833
C         2.61698352487803    7.01119578822569   -0.25990676060872
C         2.50662942877929    5.71368966228873   -0.78303248917562
C         1.38580704944105    4.97541172346206   -0.49074721149579
C         0.40141580332963    5.51766325319746    0.33575175620975
C         3.73346881275027    7.85754839294786   -0.51921021824012
C         3.81146854258324    9.10169227481912    0.00961910364140
H         1.73786048976794    1.58424238000902    3.05013596513885
H         0.35984329638084    2.09916631148835    4.05626158922361
H         0.42622053686356    2.57023273891820    2.34007475479743
H        -3.31851306714889    5.99621392401363    2.45628935272617
H        -1.55646023492395    3.51666540286064    4.73367612157307
H        -2.77496995331624    1.72586874915869    5.92201943817056
H        -6.41829575570711    2.99225424271861    4.08096490594255
H        -5.21709061496339    4.75284396449680    2.91157639356799
H        -6.83761837620397    0.13871668065761    6.30506894319767
H        -7.19102127000029    1.85779973541995    6.00446674839798
H        -6.89834159608245    0.74925749646340    4.63350688775650
H        -6.85416858234801    9.32224367002215    2.37313404223550
H        -5.46903749399422    8.74874400263538    3.34776996978945
H        -5.53199419819995   10.44165629607571    2.77853395365424
H        -0.48835701434600    8.21747749528327    4.69804639103181
H        -0.62447193260049    8.93304484293347    6.87935248521187
H        -1.60974299569843   10.33870343215892    8.65368614900009
H        -4.60530761033309   11.67835349981284    5.91470767033010
H        -3.63032664016895   10.28880099513729    4.16797793446525
H        -4.94771019941207   13.10868448898217    9.24767604192843
H        -4.60125006846217   13.40134400762851    7.52600717464769
H        -5.64512189516530   12.03402824623753    8.01093865420521
H        -0.14445575016939   10.71686157482017    3.04514054799032
H         1.75446858502521   12.26055652661986    2.68297283276012
H         3.65369935188201   11.53544311625536    1.23971480964973
H         3.29528630675853    5.31653018264787   -1.40456027311365
H         1.25539412645767    3.97882016032537   -0.88212599510010
H        -0.48646312545405    4.94209539987106    0.56623060509326
H         4.52156901391730    7.47356093936568   -1.15009447123903
H         4.66415770985089    9.73511210301927   -0.18649606048075

