68
CSD_code = RAZLOW | q = 0 | S = 0 | Stoichiometry = C27H35ClIrN3O | MND = 6
Ir        4.76723353949553    5.13136998288080    0.33817548055939
N         2.00347670744147    3.82608878278238    0.39993362751722
N         1.16404720518228    3.09884841764798    1.18057073582699
N         3.08420247297237    3.41734192621258    2.18286153331174
O         2.58731763531974    1.51567992818265    4.02782911740609
Cl        4.05439757379859    6.62361265410995    2.02179560385522
C         0.63670382608437    3.55592051032243   -1.56398515754729
H         0.31204413865831    2.60376222726816   -1.17498847299486
C         0.17027198366128    4.03330665519099   -2.77470948042700
H        -0.52670782400839    3.44215487987926   -3.34944913869681
C         0.59595613375217    5.26257501491289   -3.25096344862840
H         0.23202100595955    5.62964828007987   -4.19878694709335
C         1.47783798410784    6.02640155171858   -2.50322841806862
H         1.79218585711725    6.99485648387929   -2.86206536422955
C         1.94556341538589    5.56456284038044   -1.28730092977281
H         2.61125724160602    6.16517945007192   -0.68331653043580
C         1.53817364627764    4.31673525110619   -0.82903620790805
C         3.20880153362086    4.03416556398181    0.97364293681828
C         1.83333043328003    2.88272902265075    2.26571198149232
C         1.44566359738178    2.13356687001096    3.48895015028690
H         0.98803436050350    2.82201847315969    4.21949808215533
H         0.73154338185320    1.34353547830081    3.25024695084375
C         3.57852992939617    2.44544621245849    4.41664340165255
H         3.21565983643697    2.96253511035602    5.31994798748444
C         3.95951806413594    3.49024540148431    3.32667052314024
H         3.85654248072503    4.51026716404068    3.71594306546436
C         5.44516949249345    3.19762042169322    3.06053921206970
H         5.78402258874799    3.58887522762217    2.10231205292741
C         6.18461475737007    3.77594590619130    4.27199424051919
H         7.25929234265771    3.79154461248691    4.10054575009132
H         5.87170424895177    4.79876118308116    4.47505743445105
C         5.79491243439330    2.80084513681073    5.40083063894211
H         5.23633885814941    3.29513478933423    6.19535599794043
H         6.66627979971172    2.33614063494453    5.86001629147350
C         4.92755792140895    1.73983988303194    4.69112877836629
C         5.57707961750641    1.67969855631007    3.28199905156935
C         4.83968662311690    0.82505554263749    2.25325451102199
H         5.28500961581878    0.97559052565589    1.27136348674958
H         3.78285629362868    1.04619533861506    2.18921871249553
H         4.93870853508961   -0.22711434985571    2.51164690747691
C         7.02816299738904    1.19327551673576    3.27463640780961
H         7.47787096043190    1.42344678849579    2.31056707319539
H         7.05634543041828    0.11415026463662    3.40897030695906
H         7.63860679193420    1.64203512568851    4.04870099833658
C         4.78239222857682    0.44007844584215    5.45606422437541
H         4.37181371599013    0.63296877798655    6.44470567915171
H         5.75068106554754   -0.04064313704080    5.56998172231937
H         4.10819700330680   -0.22887968370433    4.92974379466512
C         5.84137312411802    3.58602058896472   -0.66987693132521
H         5.57402419988314    2.59532797548540   -0.30774886902799
C         4.92727983550668    4.18661235140058   -1.55645136518723
H         4.04637282913686    3.60301542291504   -1.82159881817938
C         5.31018798404372    5.17066216384304   -2.63831257748407
H         5.80575381137425    4.63718592851248   -3.45694155813828
H         4.38673497184891    5.59109321256292   -3.04152705238769
C         6.20934476966831    6.31448505522632   -2.13251818619944
H         6.00282404516862    7.21124623216252   -2.71953732642873
H         7.26078934921753    6.06566991920832   -2.28501982393302
C         5.98402492214930    6.62012406822121   -0.66872892053121
H         5.50982746636339    7.57792016531771   -0.46734335657173
C         6.71785156348761    6.04621987806721    0.35129336803875
H         6.81043262382375    6.59619870368013    1.28525600474203
C         7.79077933786217    5.00105506472277    0.15072354916510
H         8.68092420526338    5.47429634640282   -0.27753218049519
H         8.07442829100384    4.61549312772498    1.13234395033518
C         7.33751209145433    3.82738851535671   -0.73912824939114
H         7.86047889869979    2.92338867818121   -0.41988881200310
H         7.61884619714298    4.00817696177902   -1.77768719991524

