54
CSD_code = REBQUN | q = 0 | S = 0 | Stoichiometry = C21H26NO2PPtS2 | MND = 4
Pt        7.27161908978913    1.82888869716236   15.91986525159495
S         9.36065488595900    0.43138336120638   16.27041588502637
S         8.21929124122991    2.40820622436138   13.83071341127084
P         9.80869915380766    1.91251258461844   14.99898065755615
O        10.38333002073100    3.21476054676083   15.74376688861648
O        11.15031562958691    1.65281556260798   14.18207581985191
N         6.37035603597546    1.26453169351410   17.65735633550861
C         5.62562744951687    2.97435799552209   15.75242450703657
C         5.22713952342919    3.87165319785218   14.78146909426962
H         5.82391227549347    4.01730466059544   13.89236879870655
C         4.04017336560287    4.59996592672784   14.92739457186413
H         3.75761813081602    5.29493667376788   14.14927181395236
C         3.22861537628076    4.45164170042469   16.02798562298007
H         2.31599821456054    5.02245847160657   16.11957169009192
C         3.58344927080620    3.54805740671425   17.03945511664026
C         4.78471142290098    2.82806382824988   16.88057930484592
C         2.80767948094292    3.30964802208560   18.21189936754095
H         1.88620888469984    3.86155081244176   18.33202381918933
C         3.19519639176692    2.41612780766804   19.15711043995768
H         2.59095685549646    2.24464085913705   20.03597712966884
C         4.40663101545985    1.67608255445899   19.02450626813105
C         4.87477370370493    0.73460482479963   19.95277047955232
H         4.30331756964053    0.52559476247406   20.84510220135709
C         6.06482996240881    0.08766248074480   19.70321686832245
H         6.45251079633326   -0.64538131967641   20.39267631777850
C         6.78825409609716    0.37903539865436   18.54651465883384
H         7.72752294489344   -0.11974884764687   18.34568687788228
C         5.19392794419854    1.90231565409897   17.87823664234735
C         9.55532664712150    3.97285874560541   16.60934345655984
H        10.17459938537919    4.24583544880606   17.46843296034248
H         8.71007564424886    3.34191369314691   16.97590537848044
C         8.98044153469128    5.20633612521966   15.92285889134146
H         8.55905875818984    4.90159614666086   14.96267368001006
H         9.77961970240150    5.92398298509555   15.72996385479821
C         7.87784769600393    5.83979119516178   16.76729027812981
H         8.29096011672956    6.17169525121871   17.72242163175174
H         7.11551069930419    5.08206708061825   16.97309337086575
C         7.22960456026612    7.01452652354467   16.04764808696520
H         6.44651625681712    7.45105142806329   16.66234099388876
H         6.78567529201604    6.68133431442723   15.11314913383847
H         7.96574371581883    7.78416175560233   15.82720049215734
C        11.44978588181720    0.36847253847326   13.64942876729208
H        11.43093033247285   -0.36983895807404   14.46017422469331
H        12.47148817586852    0.45703984764380   13.27011465592189
C        10.48977670596316   -0.04903959986149   12.54350175295931
H        10.76157488286000   -1.05527372184688   12.21770213579494
H         9.47812160289752   -0.09157822568313   12.95810193843424
C        10.51406144461027    0.91312025272372   11.35895182853866
H        11.51212753353442    0.90937964573538   10.91412612308857
H        10.31041200422199    1.92491999482183   11.71594538257597
C         9.47661349082937    0.53366890637392   10.31095240952692
H         9.65266751118024   -0.47587887466652    9.94505336742555
H         9.52006796259892    1.21888474724766    9.46817872369887
H         8.47737173000414    0.57820121294331   10.73763064067031

