91
CSD_code = REBQOH | q = 1 | S = 0 | Stoichiometry = C39H46N3P2Ru(1+) | MND = 8
Ru        8.51424061542987   13.34938418011337   10.30955462940361
P         8.49889397527750   15.34162525929882    9.23209657791502
P         8.61620812249419   14.78752425867449   12.06634131413978
N         6.33878931882347   13.25935908639667   10.55138222083358
H         5.98740719180274   14.23042180593855   10.55575235944398
N         9.97768872878080   16.82613099912794   10.92813836895274
N         6.51325637690138   16.18908328857923   10.90634841359421
C         5.60379562685506   12.51728905884512    9.51996875458558
H         6.04580265334019   11.52253044111016    9.41807008602406
H         5.65396586800806   13.02880800965297    8.55855901138963
C         4.18262500082537   12.39576642921095   10.07703631219808
H         3.66517567747114   11.52858459347300    9.67444067883138
H         3.60093490909505   13.28162263216608    9.82584528809086
C         4.39461878720560   12.29949600371515   11.59679403825828
H         3.75585197098731   13.00230751173987   12.12753535671157
H         4.17548000669711   11.30068198520112   11.96774552330459
C         5.88160045468724   12.64220027644008   11.80496675910379
H         6.04736145507777   13.32238272672474   12.64271454363614
H         6.45692139609151   11.72777843641686   11.97445320360908
C         9.96943907876379   12.50609043321858    8.82359316438557
H        10.32163299531823   12.97068554011475    7.91164472869449
C         8.86299714128246   11.63382537248964    8.92556058776588
H         8.27747852625903   11.26617402472112    8.09397230635123
C         8.84545675915353   11.11217459695473   10.25626816368271
H         8.21676018711109   10.30202718476249   10.60436313582910
C         9.92123085393665   11.67853692063944   10.96592899602797
H        10.26466429415352   11.38886201922314   11.94893343845512
C        10.60339417670616   12.57593310308247   10.09179242602974
H        11.56454834346482   13.03026347613431   10.29330746388150
C        10.04776202022352   16.28540633108338    9.58900921162520
H        10.92934278514572   15.63528115575982    9.44132862157968
H        10.08881419718446   17.12098023734126    8.87965602535921
C        10.15057681712236   15.82905434793989   11.95718610361539
H        10.28993155510564   16.32610909422556   12.92307150785879
H        11.01647635641331   15.16426923821590   11.78528316661153
C         7.26345709762874   16.62276189943482    9.73621233516081
H         7.78911154922822   17.57953793414473    9.90265912453952
H         6.56313109664223   16.75129089100113    8.90431768706109
C         7.33679021373772   16.13394307851128   12.10493386694263
H         6.67540579940508   15.90706332915503   12.94890407274269
H         7.84311500138110   17.09786160753941   12.28919174320108
C         8.40466314068084   15.35712386910363    7.41835520543360
C         9.52752137080545   15.49927143373815    6.60929915908702
H        10.49964962388011   15.66981739949373    7.04810712062436
C         9.40313978927897   15.42355174329933    5.23275506614690
H        10.27690794800174   15.54171995312210    4.60985579350480
C         8.16647609617137   15.19339307844245    4.65375156904640
H         8.07546005493138   15.13413976181781    3.58032511380761
C         7.04697530496535   15.03107779292530    5.45495969781973
H         6.08326030371041   14.84283044839323    5.00609974506007
C         7.16773544212051   15.10493188435076    6.82895209554016
H         6.29872242720501   14.96972023698374    7.46046515575802
C         8.64904576704452   14.28451168912456   13.81640878242663
C         8.61276915933563   12.93262836478867   14.13357968639554
H         8.55956458647745   12.20963173381454   13.33088523151462
C         8.63713535314689   12.52123208642055   15.45418834447427
H         8.61308131591916   11.46878032179253   15.69310224863013
C         8.69070066405503   13.46235634637878   16.46833714482689
H         8.71161554608420   13.14552873461198   17.49950097524895
C         8.71329527972608   14.81406906391452   16.15974136784888
H         8.74867071748750   15.54720605349373   16.95139088006830
C         8.69233345718847   15.22755201410436   14.84120687045136
H         8.70469422439352   16.28351846683162   14.60940441297225
C        10.84687596524409   17.99524122870588   11.08584172074476
H        11.88309703590757   17.77060956038174   10.79098193070021
H        10.84638964415879   18.27327912308746   12.14295090600124
C        10.30196184862926   19.13883533190115   10.27200613372956
C         9.10990635384297   19.74476256288437   10.65267284522801
H         8.61923466593938   19.42502706631675   11.56160255378256
C         8.56257260175972   20.76177551655362    9.89205322508167
H         7.63868727646669   21.22848709950476   10.20000343895284
C         9.20448214183438   21.18765391946943    8.74079352682507
H         8.78071789049574   21.98386954112614    8.14851844273078
C        10.39608742089233   20.59669745012895    8.35856989596767
H        10.90525828144046   20.93165779785885    7.46782169391350
C        10.93934655554546   19.57428222148421    9.11834010150912
H        11.87386522333721   19.12059618441819    8.81866894118512
C         5.37253935058098   17.09520796146495   11.13089779286835
H         4.88822864368662   17.25922866258286   10.16526384671024
H         5.72450095415332   18.06972534199360   11.50287990833009
C         4.36109780944031   16.51457062583598   12.08219907873048
C         3.35139957937396   15.69447485952483   11.59530934878117
H         3.29647811819462   15.49746788545127   10.53411456160922
C         2.40231247829481   15.15797878581916   12.44784158270894
H         1.61128656549083   14.53772872023359   12.05260177186699
C         2.45749113139950   15.43099372927024   13.80447414229183
H         1.71744369498851   15.01594248273751   14.47096606565043
C         3.45375836200779   16.25509425331730   14.29880984022480
H         3.49056364858478   16.48657942149207   15.35234720057083
C         4.39534795406896   16.79897998675171   13.44214887947945
H         5.14641625041587   17.47045140421652   13.83418763970025

