52
CSD_code = REBWUR | q = 0 | S = 0 | Stoichiometry = C25H12F10N4Pd | MND = 4
Pd        9.05351653735440    5.56812319144697   12.91752698811419
N         7.66989771636467    7.07935083289075   13.23666265958691
N         8.09487043611256    8.26224409804572   13.67976710949474
N        10.34581678486643    7.14086936180374   12.24766405045650
N        10.33846512695999    8.26456299891558   12.97431355335642
C         7.10781048467586    9.18058915978916   13.62590069288112
H         7.25591337782194   10.19259926063396   13.94458062331598
C         5.99760902914705    8.54718599883341   13.12269075056011
H         5.03089440836745    8.96948266210199   12.94569448540032
C         6.40581508568118    7.22745996919972   12.88990084079015
H         5.83953891196750    6.40522992902928   12.49317868887680
C        11.18685440026116    9.17864980186638   12.45812453125653
H        11.31952343880526   10.14321725281923   12.90457239021198
C        11.76857183908032    8.60976945379126   11.35261640828119
H        12.49318699888052    9.04648483947460   10.69834887329188
C        11.20374514639852    7.33144686899850   11.26341649811131
H        11.39078887262383    6.57418860488814   10.52800718708722
C         9.46822751086718    8.42370300159651   14.11580964068258
H         9.58056542056747    9.45738649670447   14.47035311337194
C         9.76435771356288    7.45856487320373   15.26156342904046
C        10.76794345735828    6.49315281029150   15.20888802535636
H        11.41687477001873    6.38890326707074   14.34459098245390
C        11.00778093058765    5.69762637507862   16.32066125542432
H        11.78566158267019    4.95258779004107   16.27934541821781
C        10.25268298928904    5.84795821015179   17.46944180656627
H        10.44027330085396    5.21764610915900   18.32406075101625
C         9.25191010059206    6.80320496438492   17.51903596673544
H         8.65585722561097    6.92245039125323   18.41033803696249
C         9.00971682701030    7.60735457497988   16.42145343090858
H         8.22868671827267    8.35444537535412   16.46125650568930
C         7.80156270381442    4.17047722462999   13.51073028620998
C         7.06160455336110    3.48148449961180   12.56184461437511
C         6.12101015704187    2.51585938899778   12.89125500602061
C         5.90293442549820    2.22779464654985   14.23679871787872
C         6.60985518374242    2.91457823011099   15.21984947387608
C         7.54037038919545    3.87210329994641   14.83666197833879
C        10.26223332864877    4.09091753898437   12.40697846930932
C        10.37093852458640    3.93169601528645   11.03095011011950
C        11.71521373940671    2.14914563962494   12.63069155450231
C        10.93924505850396    3.16341862491921   13.18127636120091
C        11.13109014647521    2.93977903692933   10.43107106611641
C        11.81308169808007    2.04006585030729   11.24744199556081
F         7.28332492939165    3.82128538053727   11.26928814354941
F         5.41795823284827    1.87205371090331   11.94888279310491
F         4.99854202566990    1.30234809368999   14.58481294336030
F         6.37439595384079    2.65484077450721   16.51442032517674
F         8.21069967467329    4.58119952918921   15.77053296700343
F         9.69130132163753    4.83458277175275   10.27253034309770
F        11.22847679170601    2.83949987109856    9.09767818671037
F        12.56343059720464    1.07376377632995   10.70109887693609
F        12.37047468086958    1.27988525737954   13.41438036578863
F        10.83359874118820    3.25898231492099   14.52426072827435

