56
CSD_code = REBWIF | q = 0 | S = 0 | Stoichiometry = C26H14F10N4OPd | MND = 4
Pd        1.68610458583814   13.80572851965713    4.78650640931993
N         1.12645947378870   11.87106539678596    4.28870788741790
N         1.40410887318807   10.86948401057304    5.12149941254329
N         1.69122591211298   11.98730129384674    7.17459619922284
N         1.28309594283353   13.20481828957489    6.80016390650920
O         3.77146554403200    9.35146102067822    4.83218699149427
F         0.38893406205507   15.93569794693227    2.76404628818610
F         1.02343598741529   16.47548753310063    0.15472420676455
F         3.02076675954474   15.07674618470042   -1.07183918611797
F         4.35554119761593   13.12130370536358    0.30371080111197
F         3.67596786443667   12.60634422607752    2.91653052226775
F         4.26958114079155   15.91874330290649    4.90955040491677
F         4.19478218728698   18.58050015435506    5.57836971043557
F         1.82052525913828   19.74144680133393    6.25232570265920
F        -0.47578793335500   18.26013588139148    6.25413426064707
F        -0.34735338882265   15.56909239082190    5.55455715644283
C         2.30097256229270   11.06738797081329    6.24399988611652
H         2.40408014741354   10.09695834438413    6.74664845388282
C         0.30605209453210   11.39528749851658    3.37111935432070
H        -0.06808933292873   12.02403368485515    2.58375409466541
C         0.05358462830972   10.03938001991373    3.61356940197584
H        -0.56748919201877    9.38150453189790    3.04255532946492
C         0.77423546429715    9.73988247666821    4.74424391226271
H         0.88793954291274    8.82270386616456    5.28451254663084
C         1.40748681335313   11.76277804304335    8.47401756531921
H         1.66038978025915   10.84072021902776    8.95660637692117
C         0.79390979048376   12.89301276525035    8.95536294158303
H         0.43339533254427   13.06927751689879    9.94673765298345
C         0.73830542991100   13.76686567065517    7.86336535390480
H         0.32417821843450   14.75522999374940    7.82514693857425
C         4.39008255302252    8.39369829065008    4.00097810862591
H         4.53584286211543    8.78288470651192    2.99025083884261
H         3.70440443620485    7.54842580406081    3.96761888821778
H         5.34888365471571    8.06548618430977    4.41226053129284
C         2.06202482187265   14.29831302972303    2.90709057674730
C         1.39127227122435   15.26002558260068    2.16373137208324
C         1.69631563756724   15.53828127338695    0.83635409711635
C         2.71208545747420   14.82466729281062    0.20725633856973
C         3.39368505384536   13.83578718137143    0.90954828526440
C         3.05117310254810   13.59819632009918    2.23247286753041
C         1.96006774564693   15.70697137152328    5.25416374076370
C         3.09539411428791   16.49815114832802    5.24926057353927
C         3.07036382374337   17.84885495637702    5.57961708090867
C         1.86033903311126   18.44376845997140    5.92053567962253
C         0.68946733660979   17.68795835221439    5.91961709564557
C         0.77013116768011   16.34726166099412    5.58025978096117
C         3.66664053795596   11.51090776561037    5.73893707811154
C         4.38271098050910   10.56247652459382    4.99058765696026
C         5.63191015170275   10.89270318823409    4.48413519543217
H         6.19425411393704   10.18091184271254    3.90282958555412
C         6.15774730401101   12.15240468781671    4.71040390872249
H         7.12415673047941   12.40059403642836    4.30032196613981
C         5.46019519183081   13.08653405111168    5.45191040243138
H         5.87605863229589   14.06461806354968    5.62663000899664
C         4.21079464648135   12.77012575974233    5.96618079280682
H         3.71009389145383   13.49851320532547    6.59863706669374

