30
CSD_code = REBWAZ | q = 0 | S = 0 | Stoichiometry = C16H10CrO3 | MND = 9
Cr        2.64761145706208    6.72007055036553    2.04252570748786
O         5.40147812469664    5.64242975871327    1.72584549750655
O         4.13350976161756    9.23131517323482    1.45283021257548
O         2.84425695305000    6.46780671575682   -0.91574419642455
C         2.43841320700039    3.66024640470314    3.59143753689735
H         3.51801219367247    3.56686453734336    3.44526435578953
H         2.20392200620115    3.25461450390017    4.58069514905789
C         1.97428995500185    5.08277891961118    3.44783828199820
C         2.28115280242298    6.19541617636190    4.24329871831028
H         2.94526563255457    6.10264809756044    5.09484211485519
C         1.65540592865113    7.41380938874476    3.95651735424303
H         1.82956224543253    8.26971924927859    4.59828301982491
C         0.70150129607547    7.51476193222387    2.91971325669346
H         0.16957023252693    8.44792251661061    2.77777790859289
C         0.39574976788451    6.40919167756050    2.12604463417324
H        -0.38159686501096    6.46970746275489    1.37356789290045
C         1.02572715285818    5.17801873832147    2.40366065277307
C         0.84814172155031    3.86077291398186    1.81972458657400
C         0.04922561326691    3.43319388529071    0.76955908391679
H        -0.58073330454921    4.12733602927567    0.23356455972306
C         0.08578742795807    2.09537309453411    0.41540625039313
H        -0.52694891690838    1.74295832003403   -0.40082889391851
C         0.90233023773798    1.20175047351805    1.09250862835333
H         0.91545579882484    0.16326735231820    0.79761528058441
C         1.70552200245349    1.62563634335313    2.14313138937536
H         2.34191048742125    0.92533597391054    2.66378733641930
C         1.67395107089940    2.95456057960995    2.50581740201297
C         4.32959651702279    6.04734960977243    1.88038336738511
C         3.52874607308985    8.28248080148166    1.71353261365610
C         2.72528341953536    6.56526281987428    0.22850029826995

