64
CSD_code = REBWEB | q = 0 | S = 0 | Stoichiometry = C29H20F10N4Pd | MND = 4
Pd        6.82385310742485    2.11817092980240   12.74566539843567
C         9.02646548912800    0.74242795877676   10.87144956561715
H         9.76691238104321    0.15712796807318   10.31474026662433
N         8.60513327723858    1.19091976373637   13.20837473027907
N         9.39242790459435    0.65240723297447   12.27107045968086
C        10.41081076075675   -0.04021791335305   12.84106512273918
C        10.24497324436355    0.07715180188963   14.20363019447409
H        10.86949115588033   -0.34233484082713   14.96504943482278
C         9.08614835012576    0.84952111656920   14.38951445219720
C        11.45179856385249   -0.76438390703170   12.06811960454045
H        11.97925751032836   -0.09457397930525   11.38972542921727
H        11.01629556992105   -1.57713983952568   11.48539083450169
H        12.17431652841904   -1.19106147277202   12.75769378375322
C         8.38561089427741    1.23542537434570   15.64287461069211
H         7.32458837132030    1.40689997113390   15.42524867382014
H         8.81179346667197    2.14954650914001   16.05708636163837
H         8.47977498228099    0.44670768264351   16.38544826575306
N         6.65256624708989    0.38586047390678   11.41140693830054
N         7.74595286217170    0.09816453229925   10.67209477171934
C         7.48597653424112   -0.88608012705980    9.77760788847574
C         6.17038307081419   -1.24093061002727    9.96260864663406
H         5.62188838973822   -1.98862825942000    9.42856702268855
C         5.68752704138176   -0.42401119699393   10.99627262475264
C         4.31753425681735   -0.45141905095585   11.56618976209311
H         4.35927382187433   -0.52848661774511   12.65027477689708
H         3.77578840534956   -1.30665137678448   11.17110936991556
H         3.77671612989703    0.45774292962792   11.30431388297039
C         8.48150099682019   -1.40619521240980    8.80695156185326
H         9.31735346908802   -1.89030423605636    9.31314108216166
H         8.87108769675764   -0.60470816789420    8.17980024778433
H         8.00172461727765   -2.14221231075195    8.16828611215017
C         9.07885025985181    2.18123160353243   10.37927266975402
C         7.94205179958351    2.92954910638139   10.08987641732414
H         6.94384589701052    2.49723596844670   10.12408515005751
C         8.08035889431012    4.24786255301446    9.67673803564031
H         7.19689738409327    4.82588554417712    9.45860461367030
C         9.33438611633627    4.81793369414952    9.55204559779266
H         9.43160536080293    5.84715417037349    9.24251156934003
C        10.46560856117890    4.06668029129564    9.82242078628133
H        11.44712328845303    4.50397725371693    9.72293863819044
C        10.33792937060065    2.75353609605468   10.23208765187318
H        11.22144943505276    2.17323541737350   10.45724647215710
C         7.18006407388424    3.74737412815109   13.85422254487835
C         6.43288855835555    4.29687383733670   14.89089057403334
C         6.80321802513906    5.44968957258020   15.57599136942285
C         7.97954638961284    6.10668633996486   15.23528450714002
C         8.77460109410908    5.58009410581518   14.22438518128006
C         8.35936669556314    4.42734026080679   13.57386102573350
F         5.30166636145667    3.67882651133944   15.28686320502390
F         6.03769551366923    5.92683456646988   16.56746085646525
F         8.35094123764271    7.21890218003878   15.88313660720451
F         9.93177468855649    6.17628500663095   13.89473040655399
F         9.17362158773800    3.89798001205454   12.62805885111682
C         4.97134389071061    2.78884291279959   12.51617730537157
C         4.11039994798435    2.15431035005710   13.40718993778531
C         2.75268312063467    2.41018162500021   13.48968461062035
C         2.20581098475719    3.36751408061172   12.63751581189298
C         3.02698606247524    4.03822153936066   11.73920756015150
C         4.38558332101744    3.74036703236491   11.69901566030131
F         4.68271534414266    1.22520225827839   14.22667826304474
F         1.96459701357986    1.75001581498796   14.35015423409201
F         0.89302867153593    3.63562860978601   12.67885441769616
F         2.50160699908468    4.95891500083567   10.91551706285827
F         5.17022895415803    4.40249743019397   10.81752052810983

