63
CSD_code = REBWOL | q = 0 | S = 0 | Stoichiometry = C28H19F10N5Pd | MND = 4
Pd        5.54042128246788    2.74182967613257    9.03929131227995
N         5.20459194601600    0.83229535276602    8.27315052233054
N         4.26701168789890    0.59062707450197    7.35174189794628
C         4.29466639159014   -0.70994121943889    6.96335905406003
C         5.30513982653773   -1.30580889118588    7.68457502535000
C         5.85925675806630   -0.29458190329469    8.48821146755555
C         3.37692893106210   -1.28683744892878    5.94849585161670
C         7.01987066948109   -0.35100802667286    9.41460137553708
N         5.33407885063444    3.30355188406681    6.92676587748289
N         4.35660081989871    2.67870932543965    6.23651115142463
C         4.25609961370045    3.16764596873385    4.97493095482383
C         5.22052965162527    4.13860100319909    4.85911792989766
C         5.86991406164406    4.19237457899809    6.10319898402823
C         3.26338555118702    2.69480958037453    3.97608677131026
C         6.98912607267478    5.10300056011542    6.45206203214221
C         5.50103986653153    2.12502376902697   10.94091215123738
C         4.33118991044701    1.49208023858752   11.34501374398986
C         4.09845744958756    1.01553923726718   12.62652205907554
C         5.09048398242493    1.16014243525747   13.58889644771744
C         6.29215008364153    1.76082158989849   13.23138023931582
C         6.47269858518924    2.22302453591701   11.93222941069433
F         3.36596389748185    1.29438232896187   10.40707097538094
F         2.93774406338828    0.41356972092850   12.93577231462084
F         4.89828322337061    0.71058851684306   14.83640656084814
F         7.26974063256589    1.88207365480959   14.14038739235872
F         7.67031287293740    2.76300237639751   11.62436550564004
C         6.30756563697999    4.44829724688404    9.72268359058031
C         7.67840375409804    4.47219871574533    9.47255877582762
C         8.52356229914900    5.50018733346392    9.85316213382956
C         7.98555046855005    6.58056020172658   10.54823545466253
C         6.63006842031832    6.58918560988319   10.85117228752185
C         5.82622632363981    5.52818595524761   10.44362272970096
F         8.18966524660971    3.39314475994194    8.81037040388499
F         9.83164546774671    5.47705512188045    9.55601578993402
F         8.76926039965264    7.60180363662456   10.92274814992560
F         6.10550221790179    7.62095984071692   11.53197248308471
F         4.51689676583656    5.55931887493585   10.77852051686777
C         3.48515926834374    1.68052510277580    6.81345226622162
C         2.56478285245107    2.28037229483335    7.87237514931602
N         2.99742390173725    3.36963301834788    8.49749425782132
C         2.21269157784173    3.90991634314436    9.41974988717540
C         0.97977213152518    3.37750256048866    9.76885225878663
C         0.53716050713178    2.23885611083487    9.11812055527715
C         1.34259252344468    1.68068271113667    8.13807450188754
H         5.61046148662280   -2.33068154108825    7.63708885209113
H         2.33524846761827   -1.15771441586996    6.24076649670292
H         3.52496962017466   -0.82336535012667    4.97233682386730
H         3.57591909521021   -2.35020209236477    5.85263085685328
H         7.43986054666828    0.65430096241081    9.52732724798850
H         7.78182632852443   -1.02014026611841    9.02188461405486
H         6.71399748990795   -0.71779926695124   10.39460233203839
H         5.43542990280939    4.73652933935193    3.99786539235092
H         3.39167135685771    3.26016041999654    3.05747978176158
H         2.24419022979057    2.84565535527990    4.33194842517916
H         3.40166870789138    1.63790483362540    3.74556176313337
H         6.71771209100963    5.72757614413133    7.30181008306272
H         7.21710581565108    5.74000081415351    5.60141450423310
H         7.87954050253489    4.53372356200849    6.71013396776237
H         2.87310166281810    1.26937794590093    6.00444501927159
H         2.58839608039147    4.80355819210570    9.89358643374477
H         0.38428710160285    3.84548149240206   10.53601511141376
H        -0.41415603071155    1.79165763675677    9.36327784131282
H         1.03195309960488    0.79537487712973    7.60388625220065

