72
CSD_code = RECBEJ | q = 0 | S = 0 | Stoichiometry = C26H41IrOP2Si | MND = 6
Ir       -3.38841033197662    8.21240511880142   11.10983007134035
H        -4.91657044642832    8.10691435788047   11.47952087528268
H        -3.85557933308276    8.48046476317572    9.64320688283900
P        -3.22570283281116   10.52780759094876   11.18653980029053
P        -3.11976950073054    6.04074394200469   10.33559880619426
Si       -1.19307537892687    8.43183250706656   10.22695838622645
O        -2.73836327407273    7.66054060534041   14.01383785963208
C        -2.06312021986095   11.11352026536256    9.90789478418960
C        -1.10877811250007   10.19507875560802    9.46330377936493
C        -0.14862832894010   10.62449615085493    8.56147832746115
H         0.61403639869253    9.93608074229682    8.23117008592451
C        -0.14597395026718   11.92051511095787    8.07581886363751
H         0.60711147722922   12.23399591369804    7.36673629587482
C        -1.11621010950489   12.81389553337996    8.49594564330997
H        -1.12921391904503   13.82405342971629    8.11185733435628
C        -2.06916379645152   12.41478497969682    9.41666078767341
H        -2.81909049161035   13.12573349648014    9.73159971162514
C         0.54575675660521    8.30627101155869   11.08086075073108
H         1.12273616738449    9.20568949619598   10.89464031275792
H         1.10243009592583    7.46383417448373   10.68493445491205
H         0.48478977080929    8.17829104478411   12.15646140743597
C        -1.03383167437848    7.07551540499636    8.87250495102658
C        -1.94023878636294    6.01465661451619    8.94359686388613
C        -1.88752872502940    4.98112142347489    8.01423527507267
H        -2.60092171806908    4.17029122585759    8.04161122882584
C        -0.92245474698409    4.98774653800164    7.02239886050986
H        -0.88969758698923    4.18599759691081    6.29834504654873
C         0.00167054224741    6.01672736438318    6.96577458169558
H         0.76478152631401    6.01659543756601    6.20035518089959
C        -0.05968855493386    7.04716224028934    7.88773819660747
H         0.66798451000976    7.84254076248061    7.83899456564307
C        -2.53617192549384   11.31600778167756   12.74341416439908
H        -3.19090673024179   10.95643051885503   13.54952628257147
C        -1.12521657472452   10.79420111351062   12.99129953750967
H        -0.46405210366987   11.07809639411412   12.17365749833154
H        -1.11731235500403    9.71138898368641   13.07658172943151
H        -0.72781085041047   11.20965869551201   13.91652126010247
C        -2.52136983740368   12.84154019015430   12.74517086148819
H        -2.07805767017874   13.19221421046396   13.67682710552268
H        -3.52016096188392   13.26452286420875   12.67683595523305
H        -1.91527357801247   13.21915267591687   11.92424361036422
C        -4.77192427067487   11.52856983684816   10.89303997418889
H        -4.49431372620378   12.58857569702914   10.87498815158436
C        -5.37071167251117   11.15433965949298    9.54293392044940
H        -5.69751923690962   10.11776371804858    9.55787533024571
H        -4.63489576482997   11.26900844783305    8.74791547227181
H        -6.22775780872693   11.78863025227514    9.32042640908517
C        -5.76949506528223   11.28594241035819   12.02040640543750
H        -6.71473454424588   11.77854356317308   11.79720621303734
H        -5.40147731338313   11.66776410159518   12.97090365161083
H        -5.95285287049000   10.21768413098931   12.12415209373472
C        -2.38258668679257    4.77416511826585   11.50755240941309
H        -3.03326094996068    4.80442310508383   12.39273910389143
C        -0.98226412838927    5.21912902791288   11.91495775398314
H        -0.56467049064785    4.52590542007806   12.64405201281292
H        -0.99798751197357    6.20971097598407   12.36050889101338
H        -0.32406154058913    5.24487380779159   11.04757016025017
C        -2.32542506082756    3.34751189090960   10.96997072483575
H        -1.73082006140614    3.30482134418738   10.05977802381866
H        -3.31364402650475    2.94089821646867   10.77185155891524
H        -1.84797653726526    2.70695806199117   11.71107704150548
C        -4.61942370942262    5.14648558048121    9.68069467166300
H        -4.29332524981964    4.17641329274199    9.28858899727008
C        -5.62434957844886    4.92576411909436   10.80592421044322
H        -5.86801775839281    5.87910703757279   11.27185059401518
H        -5.23048124252292    4.25858606585537   11.57044341122016
H        -6.54071729601224    4.48996930078997   10.41051692766696
C        -5.23787149473671    5.95344173391446    8.54591697404338
H        -6.06906089417349    5.40665852145023    8.10262683647587
H        -4.50118255942808    6.15898653146126    7.77028842038545
H        -5.60694834147986    6.90278602381720    8.92552372400893
C        -2.95069544720872    7.87586597964207   12.89963195399304

