64
CSD_code = RECCUZ | q = 0 | S = 0 | Stoichiometry = C29H31AuNOP | MND = 2
Au        1.96370178135227    1.77687816196202    2.98430979248091
P         3.63503046126230    1.22271064628108    1.56730381483441
C         0.50962917510389    2.29624752383714    4.32579154126414
C         3.16495210972422    0.11050604698116    0.21513936837937
C         4.42139938590598    2.62486450994511    0.72164967630864
C         7.25620322342949   -0.73301628206081    3.58290266884231
H         8.10419273315442   -1.19254788747187    4.06907247479858
C         0.13668794657424   -0.11379512735297    4.95991732787486
H        -0.18738648566330   -0.67311621344154    5.85165683249241
H        -0.45985184156659   -0.47889062730707    4.10388540721352
C         6.07589014016710   -0.54340561230181    4.28226347538076
H         6.00234958128513   -0.85123656844716    5.31486981169531
C        -0.84100236814885    4.01220306438499    5.40501786756857
H        -1.12496894274807    5.05356490660283    5.49565987664099
C         2.06348316917802    0.52230978105902   -0.53541637621492
H         1.59229767869179    1.46821430465923   -0.29607453385834
C         3.25975304771923   -1.91751931803310   -1.06076827832672
H         3.71802818373984   -2.87511853211199   -1.26100633389964
C        -0.39217058997175    4.14431348904523    1.63355257623947
H        -0.97412636342184    3.43338198022713    2.21653274527033
H        -0.27245902935536    3.75763063035997    0.62135784318908
H        -0.94362227241842    5.09681880861847    1.58223857430162
C         5.60250187143486    4.90092889096306   -0.33212844854759
H         6.06262724186343    5.78604653693253   -0.74561513370258
C         4.97115025064153    3.58686959719790    1.56719187579521
H         4.92145368922957    3.43279540717213    2.63836271195167
C         5.04802967176493    3.95191215602742   -1.17411455474043
H         5.07720712318729    4.09715436563203   -2.24435281921468
N         0.91014874399758    4.29308371737253    2.24686649204710
C         0.12630532252649    3.63321548876492    4.48633983917463
C         3.74956695384338   -1.12417556812365   -0.03727739655249
H         4.58235214527619   -1.46386503215999    0.56249255213499
O         1.50359572997592   -0.38336409589437    4.70994654656986
C         1.58382762335102   -0.27082131453755   -1.55879215536681
H         0.73692643826013    0.05449154640094   -2.14518397541171
C         7.35713591224453   -0.32730211958997    2.26025759678824
H         8.28207517387301   -0.47034171972720    1.72053431445583
C         5.08604655853862    0.44249238675608    2.33034847561819
C        -1.44199355254699    3.06460988768101    6.21397144229147
H        -2.18678785770272    3.35960030224170    6.94021706038916
C         5.56505516127688    4.71684727532704    1.04186728464370
H         5.99459675553917    5.45868074947393    1.69922977375763
C        -1.08639992895421    1.73657643753378    6.07918147282253
H        -1.55722355855312    0.98681680620209    6.70281243209539
C         0.78924566783756    4.69606723842162    3.64178819446606
H         0.23625357029439    5.64831904817812    3.73307205598621
H         1.80469157165269    4.86115798414640    4.01952600876540
C         6.27751553988368    0.26306699202706    1.63151354687295
H         6.35081056215855    0.58990689244685    0.60248659900867
C        -0.13439709929697    1.36130493883241    5.13894532045871
C         4.45631014534899    2.81362588533138   -0.65358448552913
H         4.02739669541283    2.07453560673259   -1.31599971409992
C         2.18672266982447   -1.49118944914786   -1.82546839592321
H         1.81225502228960   -2.11433509611041   -2.62403171307606
C         1.72530082199639   -1.71600205985616    4.34212345573065
H         1.41101591303510   -2.40522977671616    5.13687813801336
H         2.79425194000164   -1.83220848249097    4.16775145967452
H         1.18011495020982   -1.97270808547237    3.42327263888976
C         4.98974659352291    0.04716819815698    3.65946733330698
H         4.06242541160679    0.21608623394006    4.19244817429524
C         1.74004115341358    5.20543774425072    1.49390334498241
H         1.31430757338472    6.22074489124229    1.43525467524918
H         1.86458907922429    4.82556253349567    0.47887624353107
H         2.72409402510771    5.26863937543566    1.95686557991737

