36
CSD_code = RECCEK | q = 0 | S = 0 | Stoichiometry = C14H15F3IrNOS | MND = 6
Ir        1.16366838524553    8.77118511219274    2.31242521285359
S        -2.83955196156451    7.16252305713411    0.60924613607767
F        -0.57696015122638   11.33738703717002   -1.86153961133974
F         1.55418605002203   11.09103692061072   -1.68545313438961
N        -0.69827279586553    7.86382246703770    1.86589017571470
F         0.38960097018021    9.65775315472310   -2.79132476336420
O         1.09444783610675    9.71048341616171    0.46714651472889
C         0.18925937771847    9.60169909914003   -0.40823513959977
C        -0.96006539662649    8.85316984797618   -0.37575801872400
H        -1.62547899883841    8.87522210281076   -1.22297934395722
C         1.14456248770967    8.42151053942633    4.40930788183108
H         0.13387810028462    8.28353649664461    4.78922021110533
C        -1.39385225364023    7.01931317746677    2.68421128558691
H        -1.01008998747843    6.77621506876426    3.65719827645283
C        -1.33529243886896    8.04983111704448    0.71678526069430
C         2.51234988765356   10.30589703310546    2.90699325997691
H         2.36327743929521   11.15659540400672    2.24636839961861
C         0.39861726950570   10.42533290000221   -1.68487300630881
C        -2.55603771937316    6.54139948212614    2.19246716331954
H        -3.25335828484056    5.87526140784243    2.65573781437357
C         2.37420936369894   10.63872844573041    4.37484984812518
H         3.31768203597592   11.05158591109878    4.74487690529102
H         1.61845099616008   11.41888720111927    4.47379500608057
C         3.25172205352013    9.23212100425243    2.41002099282370
H         3.60704742983836    9.31003987491795    1.38652225742386
C         1.74499874714141    7.33071509639293    3.74331902143239
H         1.17528426659620    6.40461900097282    3.66908970958738
C         1.95379945311706    9.42180674883597    5.21909195307021
H         1.35376403766973    9.76676368781971    6.06206005619228
H         2.82995397095743    8.92054718948649    5.63045935028133
C         3.23964831024226    7.07428695759665    3.73062781242160
H         3.55772994675685    6.73562150996490    4.72188673698869
H         3.42984234666475    6.25655805398518    3.03417472906387
C         4.05719042139583    8.30452685536429    3.29627803309241
H         4.94058064295410    7.96892847019909    2.75223329525489
H         4.40510816191191    8.85968915087692    4.16767971821962

