60
CSD_code = RECCIN | q = 0 | S = 0 | Stoichiometry = C28H28AuO2P | MND = 2
Au       -2.20830147674075    2.94645116947679   10.74080974182330
P        -4.12829433525660    3.66609931242799    9.79781559493216
C        -4.59922560280938    1.52921950181154    8.16878773871018
H        -3.61231671320802    1.77946888811700    7.79853941689898
C        -5.17324441290985    2.32824965762118    9.15649577945261
C        -0.50776786730632    2.26381622946454   11.64734352568283
C        -2.84403876122209    5.58977007927544    8.33660966868218
H        -2.10570737631687    5.50541034991982    9.12410370480468
C        -5.23515842256413    4.54599887050670   10.93495946429019
O        -2.79021341835569    0.57923792706699   12.06914602257310
C        -5.27487418341078    4.05715401518084   12.23936507430114
H        -4.65435602470131    3.20852053865100   12.50181694149803
C        -3.97758013870855    4.78265385712265    8.37561994866593
C        -0.40542107214276    0.94259468341036   12.09290656617838
C        -6.80126860153718    6.25914024119463   11.53299648585331
H        -7.39170617463867    7.12251889626731   11.26257571818092
C        -5.28287398767590    0.43608964279271    7.67501413974812
H        -4.83828574146541   -0.17805271357026    6.90545728130839
O        -0.03385278386198    4.74718204629391   10.18149504460063
C         0.72238833594593    0.47705344670205   12.75506464442315
H         0.76438036202741   -0.54869506906444   13.09915978206668
C        -2.66614618983378    6.47332402084434    7.28718379912742
H        -1.78746273123492    7.10046559602455    7.25541408772343
C        -4.92347282535038    4.85414180046181    7.35707067377301
H        -5.79788039789330    4.21746640096245    7.38627319284767
C        -5.99413946193306    5.65606451722744   10.58425541837979
H        -5.95073704530953    6.04680256344307    9.57710792299089
C        -6.08883920481686    4.66046137903059   13.17899889462182
H        -6.12239880264033    4.27913392940829   14.18893576305520
C        -3.61080488944810    6.54851033269405    6.27617686809238
H        -3.47007458633805    7.23636474881589    5.45531534025397
C         1.73401915173189    2.62836075991268   12.53171098710995
H         2.57352033145553    3.29335318594310   12.69302068353529
C        -6.85339035959190    5.76162435362583   12.82495271955669
H        -7.48567162513805    6.23770277570694   13.55982721864542
C        -6.42643801504518    2.00614764884292    9.66267464565471
H        -6.86991371474394    2.61505935923449   10.43838964348443
C        -4.73533346097990    5.73838328015245    6.31075347404320
H        -5.46805944291337    5.79638694803616    5.51879953547383
C        -3.86948132753050   -0.20626747550513   11.65046361089040
H        -3.82959575100128   -0.40336082423503   10.56971769377147
H        -4.77812210227470    0.35136163988165   11.87536554799813
H        -3.89317163626993   -1.16771297470380   12.17958397582171
C         1.79805083876802    1.31865556519439   12.97065461814819
H         2.68143480662966    0.95584712265891   13.47745849172927
C         0.59130326913259    3.09219099740487   11.89593053733054
C        -1.53324529755093   -0.02283708289070   11.81556420759818
H        -1.49256664401930   -0.33212921348382   10.75533202851862
H        -1.42782804461948   -0.92854675041397   12.43228010441250
C         0.52825243730171    4.54267719380393   11.46788733855744
H        -0.12959468628140    5.09798115959528   12.14512561917975
H         1.53133988250894    4.99403275497940   11.50441125636748
C        -6.53810832176875    0.12310701186414    8.17538018318285
H        -7.07220678657970   -0.73434282082416    7.79370151982306
C         0.76236835052032    4.21695887648985    9.15155290611926
H         1.74151656494864    4.71165440929689    9.12221286874717
H         0.23371831926880    4.40013011663934    8.21691131280141
H         0.91382433092323    3.14025344977908    9.28180220994843
C        -7.10476660038942    0.90588213345969    9.16712358553406
H        -8.08077993482615    0.65832953999709    9.55859723046352

