77
CSD_code = RECDAG | q = 0 | S = 0 | Stoichiometry = C37H37AuNP | MND = 2
Au        0.36881770321188   -0.17263152888751   13.86495528639534
P        -0.75227549407269    1.57818675022250   12.91120672443898
C         3.68279040667380   -3.27820488478227   15.68079022640401
H         4.42472476201205   -3.95192718102309   16.08617616085792
C         1.72183863431762   -1.51637844554682   14.62881269915793
C        -1.65457358906878    2.70870418078968   14.00932049684015
C        -2.98724299443136    2.96187349161979   15.99234345599908
H        -3.47079776094821    2.53131258461634   16.85657485119763
C         0.48601862960223    2.66422378153762   12.14628690184366
C         2.33548160279167   -3.48160905928970   15.93935904472150
H         2.02339089357398   -4.31948337793122   16.54863271198152
C         2.62844384366654    3.72350963323218   12.42346371765521
H         3.49243023444455    3.94283513760457   13.03158833420417
C        -1.92658583393810    1.24681009359107   11.56909320902345
C        -1.48693887433950    0.36977202952874   10.57799300186689
H        -0.48366236431171   -0.03413479099845   10.63659157304557
C         1.46687022813007    3.87966270869313   10.32788311363926
H         1.41952061349358    4.23347985929491    9.30829103377992
C        -2.27563410642721    2.15443679497531   15.12426430971117
H        -2.19010274292332    1.08956665185116   15.30173885827563
C        -2.32447417193531    0.02777503602006    9.53479293637711
H        -1.97920993927636   -0.64439964663045    8.76328291356099
C         1.59156167704136    2.97156593726178   12.93841238216776
H         1.63003557981432    2.60572785873121   13.95780715935864
C        -1.73546816466748    4.07773831785753   13.77471787376152
H        -1.24320954483014    4.50683618745178   12.91251062665128
C        -2.44596670198844    4.87961470040678   14.64876570616182
H        -2.51142970574089    5.94257679494757   14.46840920033831
C         0.42460659892047    3.12354226184622   10.83632806865111
H        -0.42788332088476    2.88361227709303   10.21568981464232
C         1.38785351171546   -2.61445012536442   15.42216595310374
H         0.34502102325103   -2.80309437629481   15.64623902567473
C        -4.05696326005406    1.39722955360759   10.48040046627842
H        -5.06208039305111    1.79113894165584   10.44356474112385
C         2.56823400504670    4.17355803712003   11.11393713133288
H         3.38644812313082    4.74732263341375   10.70741134470908
C        -3.61090413368270    0.54339378719475    9.48510599412911
H        -4.26823485946564    0.27397883362193    8.67193695261383
C         4.03441002780050   -0.09483102754254   10.45925561206767
H         3.88187390602474   -0.86862457034401   11.21874538594166
C         7.38332177937121    1.16947771186152   14.68015213682800
H         7.15966244429078    0.17911924355217   14.29366845390715
H         7.62428350785638    1.08779166424162   15.73803210691474
H         8.25019852393996    1.56312688813945   14.15272527652258
N         4.74002460309771    0.03675258268389   13.29065036914728
C         3.09908972695788   -1.33969865449310   14.37930771873637
C         3.53072221217483   -0.23446432787564   13.55250306987707
H         2.71370644564425    0.39612345051549   13.16135752159489
C         5.09438060955331    1.07954120252154   12.45292709524372
C         5.84481791797586    2.13575094743621   13.00019662474085
C         5.94507103169313    3.15843637784074   10.82461391955591
H         6.27395823305027    3.96961221177948   10.19045299082769
C         6.17577685101762    2.08932357987999   14.47514479227765
H         5.32035998428476    1.63971024252553   14.99329700950817
C         5.21889859899055    2.11269894915109   10.29187477961612
H         4.98037644205504    2.11747999617520    9.23814970466994
C         4.06185805769492   -2.20830388995316   14.90079517259919
H         5.10120296423228   -2.01826095332390   14.67646622260991
C         4.78569911669977    1.05927278338904   11.08457890347905
C         4.84175055207639   -0.72162229599822    9.31988890103983
H         4.95837777137619   -0.02732982694761    8.49136557108435
H         4.33747914502290   -1.61265719806887    8.95072378716199
H         5.83039787503992   -1.00548120298333    9.67317885207347
C        -3.07267603013509    4.32411187613193   15.75358441187818
H        -3.62539086255858    4.95635317919709   16.43236107798648
C        -3.22147023820790    1.75006177384660   11.52583176857840
H        -3.57151937106770    2.41550094039068   12.30265759550693
C         6.26192711634101    3.16191486280572   12.17292585992741
H         6.83847959611063    3.98069776345895   12.57496730376768
C         2.65888777967258    0.35384233494374    9.96103451326560
H         2.06212361323275    0.73836366930747   10.78686179826544
H         2.13058737492346   -0.48481430776789    9.51038456069639
H         2.75265075643289    1.14359186247970    9.21861788013335
C         6.43901137015451    3.45990403394937   15.09502050161514
H         7.37268447641617    3.88300394154438   14.73158616113601
H         6.51540327836042    3.36306925209598   16.17627539233351
H         5.62955269758288    4.15238349459200   14.87079519520541

