32
CSD_code = RECGIP | q = 0 | S = 0 | Stoichiometry = C13H12FeO6 | MND = 7
Fe        8.28396675620669    1.08125740583770    7.87803387896702
C         6.43636135979268   -0.80192468662360    9.40158645816748
O         5.14822534205544   -1.41139667616482    9.16477336505536
C         4.32021195031811   -1.26622269894062   10.20245481471301
O         3.18582706493250   -1.64543040302301   10.18906656133176
C         5.03879945290026   -0.56220947491647   11.34556628772411
C         6.50244034081388   -0.62454409762956   10.92986825471728
C         7.52362414827953   -1.70374149826727    8.80791137017624
C         8.14428780881879   -1.03898502312259    7.58866532898938
C         7.21889445557287   -0.46777576173490    6.64286711452695
C         6.33509396151803    0.45636501797022    7.22640699480262
C         6.43928626467725    0.53832516563697    8.66698462940173
O         7.35731381640500   -0.75243179554647    5.33669395372557
C         6.70820971885466    0.08597638864980    4.40187193273943
C         9.21531220850157    0.85017701893251    9.37913464021866
O         9.83865544702409    0.71116228460846   10.32661830078783
C         8.01159467813019    2.81845774178648    7.98556512007424
O         7.86749036069039    3.94955064384966    8.08566997602505
C         9.59744190512322    1.35911910062643    6.72412266949424
O        10.47822993055420    1.55415403447819    6.02025327907299
H         4.82157116550627   -1.05579009757065   12.29051127465132
H         4.66381608204788    0.46115035351079   11.40513220821303
H         6.98840160201397   -1.48901462416342   11.38401451257989
H         7.06335787922511    0.26961138443042   11.19305070962156
H         8.29870195125350   -1.90907310429962    9.54681361978338
H         7.06979305766599   -2.65614307948383    8.51740408371602
H         8.92055532060426   -1.65048332064268    7.13260327956676
H         5.59409902043910    1.00976642983634    6.66465159675292
H         5.74777688235585    1.24332465120262    9.12774990026187
H         7.02930266961939   -0.25603987981931    3.42003354268213
H         7.00941352884170    1.12941928327789    4.54595668298810
H         5.62054386925753    0.00298931731436    4.47796365847254

