55
CSD_code = RECGAK | q = 0 | S = 0 | Stoichiometry = C23H26ClN2O2Rh | MND = 8
Rh        1.99332530481784    2.45735429997380   15.09640593839829
Cl        4.04406544904108    2.37698000960193   14.03556911593483
O         4.73453612811620    2.79245073018766   19.51162062090058
N         2.63306360031294    3.96961881906325   16.22776755176147
N         3.30730138910367    3.73931022822932   17.30395903753342
O         3.74644118135589    4.63407888704511   18.02628877660944
C         3.50017474678311    2.37644881106504   17.54398946978441
C         2.37519661311653    5.29920761642328   15.85488028062422
C         4.23938732516892    1.89233026264624   18.64447753327931
C         2.93423110048464    1.52765789225566   16.58181146167716
C         0.92356817279341    1.20356231455061   13.68739626139874
C         0.20706022519262    1.14880257881920   14.91692283092306
C         2.71110062474808    5.70383434816878   14.56397460989061
H         3.20170193205066    5.00024558653845   13.90479759588397
C        -0.19453436227243    2.48631077778298   15.23226066440245
C         4.39770254930895    0.51464552902336   18.74640415073358
H         4.95319585546800    0.08906244262399   19.56604857261724
C         0.09522608647319    3.32807423588537   14.08573174752231
C         1.75819668765391    6.19039151086738   16.72936362350128
H         1.49978210867636    5.87542697374582   17.72906499349753
C         0.79122933777965    2.55389456711766   13.15147825062535
C         3.14139773993892    0.16047647544147   16.70984228496901
H         2.76301130054469   -0.52420412817432   15.96534212580611
C         2.43154889339150    6.99392048480313   14.15706457406387
H         2.70099596463373    7.31062486119217   13.16027518374985
C         3.86003316579232   -0.32844988563700   17.78628161228184
H         4.01377931193897   -1.39335849818177   17.88467695964558
C         1.42345566085722    0.04778337007175   12.87558338882190
H         2.38330568560949    0.28831647018316   12.42243047668337
H         0.71349763314729   -0.17497611011080   12.07678099833942
H         1.54682157178703   -0.84295744815302   13.48670344908968
C         1.81389242222529    7.88164205701605   15.02409797183335
H         1.59642676372044    8.88933965004891   14.70275559473187
C        -0.18190713817987   -0.07075807019601   15.69419022792038
H         0.35415361724478   -0.94849471662422   15.34434618606310
H        -1.25052446011752   -0.24879669545498   15.56127256235796
H         0.01205463438978    0.05067410481702   16.75828927906851
C        -1.09071767032745    2.87542706783364   16.36662078556322
H        -0.92258825329113    2.23905182826510   17.23266258005887
H        -2.13415156020549    2.77011441312271   16.06226371348410
H        -0.92820210249577    3.91127317163361   16.65798306881456
C         1.47875950727410    7.47656301921636   16.30551999652454
H         0.99774842756974    8.16684952547462   16.98265718703445
C        -0.42274757575443    4.72101826857683   13.91164015872799
H        -0.37016194672715    5.28552808813698   14.84056851696767
H        -1.46861751609225    4.67884386588286   13.60058745299708
H         0.13963746824476    5.26214605624641   13.15524575130051
C         5.53823662589618    2.34720035309859   20.57710207975074
H         6.42373426443348    1.81526247417941   20.21605677275657
H         4.97734455986184    1.70248996224841   21.26167882474448
H         5.84691615991283    3.24956850675739   21.10168533739656
C         1.23975158301199    2.94502636133257   11.78003823945429
H         1.10721216831288    4.01075822796542   11.61237798354710
H         0.66074788669297    2.39831755249026   11.03408564040306
H         2.29160315065521    2.69929091489423   11.63897994755551

