51
CSD_code = RECGEO | q = 0 | S = 0 | Stoichiometry = C22H24ClN2ORh | MND = 8
Rh        3.21384665617158   10.50419882804191   11.31535894406464
Cl        5.27357763130153   10.29122366025142   12.33039824349702
O         5.12876503843167   11.15059577903709    7.79436086150176
N         4.57796494764267   10.69177971024177    8.79970609708989
N         4.06941781234837   11.40781640741884    9.73894338595704
C         3.81799642707013    8.95693812143432   10.21666923981625
C         4.12053195447224   12.80753879949547    9.64372277413900
C         1.68348495801830   12.06865251037310   12.09385787610110
C         4.46819188951181    9.31578048268586    9.03042851150767
C         1.97532270349438    9.95755030729614   12.99934602036319
C         4.63120313911609   13.52536089338947   10.72408136379860
H         5.01358380817527   12.98362675182805   11.57894116862199
C         1.10192314100412   11.08641828605009   11.19710813171068
C         1.17747131957842    9.80391423488209   11.82592533722329
C         3.74484241782213    7.59853661665664   10.50786819219971
H         3.29945022901568    7.26425656916930   11.43443422362558
C         4.17238208112801   15.57465549651985    9.56287868858780
H         4.19302189588305   16.65362754742172    9.52889322075083
C         3.63651739861085   13.47669700731675    8.52243022357684
H         3.24026449154641   12.91822705008522    7.68790348223579
C         2.22248395395043   11.38232266532236   13.18728753232856
C         5.00206736387638    8.38847315877551    8.14117285541367
H         5.50021623345611    8.74200172126987    7.25128837186742
C         4.65844161259043   14.90541023811569   10.67539196544125
H         5.06535202820285   15.46220762986298   11.50632707687588
C         3.66210812713947   14.85888226622291    8.49242193374711
H         3.28119217759703   15.37865803927610    7.62592505415022
C         4.26166831164138    6.66272433807410    9.62746169381872
H         4.18998491389229    5.61204089273403    9.86918808968365
C         2.85836457481127   11.95334201730452   14.41292380384307
H         3.83989507971320   11.50856987629868   14.57451829447095
H         2.23931608580521   11.73339755269268   15.28390569075487
H         2.97547171775633   13.03072467746572   14.32977322516216
C         2.21083775908211    8.93872927240826   14.07261388395692
H         2.05384435369239    7.92865648862910   13.70223885042602
H         1.52209812229992    9.11288469775063   14.90156664596094
H         3.22801427780592    9.01299046086803   14.45261608343311
C         4.88483741346785    7.05027645596267    8.44545157355551
H         5.28869967967822    6.30455929336428    7.77821276623556
C         0.44273889004734    8.57801512761935   11.37952007894409
H         0.50743012340080    8.44123726246805   10.30185696767426
H        -0.61072086601384    8.67923086800880   11.64700303453969
H         0.83131304734181    7.68576104069397   11.86214581046637
C         0.26123753987528   11.42261055727292   10.00511209947102
H         0.67108015454449   12.27242145308218    9.46218212343913
H        -0.74689660891559   11.68573890704983   10.33166602854391
H         0.18858141573463   10.57663349155805    9.32507905941464
C         1.54672177771833   13.54961365307198   11.92688746650061
H         2.30002681237097   14.08457422234184   12.49957224897698
H         0.56064462748265   13.86136202158117   12.27783112554367
H         1.64138935963760   13.84425459331317   10.88360257901702

