137
CSD_code = RECHEO | q = 0 | S = 0 | Stoichiometry = C64H62Br2N4O2Si2Zr | MND = 13
Zr        0.36450200604499   14.13025663660582   17.22241345145781
Br       -1.24747897247646   21.43208469967048   23.37055728098424
Br       -1.86081951144859   17.46293896905622   27.92596930163831
Si        4.81848639969418   15.98330955757344   16.69276293121519
Si        4.35536129148986   11.13325363279652   14.37746784922861
N        -2.20765607959869   16.55838146309163   19.86780511760056
N         0.85984907178539   15.99091950814328   18.01700883164242
N         0.63148423761212   16.12913380177469   20.35342728214181
N         0.87248931388405   16.42445277665962   22.59753618595633
O        -1.50059345632165   14.95965744997779   18.42971991724132
O         2.56388279435735   17.39862541006214   18.58696171933480
C        -1.94936664590430   17.68809294881049   20.66562887890833
C        -2.90872134898339   18.69823121382977   20.74283563463690
H        -3.81306447204437   18.62254024169145   20.16090621104543
C        -2.71230673815767   19.80540505413561   21.54109412835463
H        -3.45829153439306   20.58260509617782   21.59246225744247
C        -1.53600224087891   19.91395675495324   22.26885807573238
C        -0.57689602110347   18.92304802269510   22.21784307658352
H         0.33742579092456   19.02745563440755   22.78032448896776
C        -0.77956936356160   17.78870426015791   21.43674465333035
C         0.24783875838443   16.72149887573407   21.42073089318462
C         0.11070062121585   16.58152703222453   19.08125412564785
H         0.09257427691622   17.68947439246760   19.01885574734024
C        -1.27566866998943   15.98908552653784   19.07340079887733
C         2.14431234549369   16.43502232406101   17.94544887806818
C         2.99304596284510   15.62273174469774   17.05192516271821
C         2.45683704279620   14.46378620440885   16.60065084066267
C         3.14129490690922   13.51704407503729   15.85690071390187
C         3.68213223809870   12.61741686995678   15.23134875134613
C        -3.55447256978181   16.01199415948826   19.83663490141981
H        -4.16179252060198   16.49917940575671   19.07140616164944
H        -4.02396918449404   16.13612975984252   20.81046781797195
H        -3.47862373805782   14.95301033962946   19.59190604872434
C         0.25341492723917   16.63797248769757   23.83648936086010
C         0.98286624147232   17.10506023425177   24.92976908908091
H         2.03789607725657   17.30719105333744   24.83085351817774
C         0.36175267518034   17.34601591084653   26.13906225466579
H         0.92941743085096   17.71867863506956   26.97735305354163
C        -0.99910347248392   17.12040568931994   26.26528884857488
C        -1.74068075489662   16.64274204005156   25.19737860084748
H        -2.79703561335377   16.45493111018781   25.31143434704794
C        -1.11264467900064   16.39719791820727   23.99314382707519
H        -1.68279042111468   16.00451336822946   23.16459600164614
C         2.07511378514381   15.61952955686924   22.52773062002534
H         1.83317264994850   14.55360585667946   22.53953354505045
H         2.72371908720195   15.84249627049521   23.37072623556889
H         2.58199385335031   15.85170479344780   21.59267711781416
C         0.32151121619009   14.16631875587164   14.65866741997501
H         1.17600589774803   13.99316007270203   14.01766916601838
C        -0.17185579964801   15.43099836723447   15.04904850972197
H         0.25337916602095   16.39103116236840   14.78190595285827
C        -1.39867208063036   15.23319052221694   15.70839490010922
H        -2.07884297923003   16.01620027137804   16.02323226352504
C        -1.65563142232809   13.84568530465692   15.75464137270558
H        -2.57362236260601   13.38593745125129   16.10398943355636
C        -0.59039115875917   13.18588371869547   15.10138666058704
H        -0.56008137277811   12.13410351268188   14.84222071146879
C         1.71399728632958   12.51344428994837   18.55603104708094
H         2.78927125801722   12.58383464109967   18.66511782319547
C         0.75498618185156   13.01807969070710   19.46183636817663
H         0.96989549057987   13.58045170491042   20.36160138428230
C        -0.51071187736766   12.53973893582064   19.06342347625950
H        -1.43370909185125   12.64466405314823   19.62081914928596
C        -0.34127175204061   11.76280923189146   17.90094315683530
H        -1.11039917385014   11.16352967038474   17.42879200869656
C         1.03244827697097   11.74235444097947   17.58275509018749
H         1.50792490914367   11.13206531225821   16.82373568196411
C         4.91471019016671   16.01541745133446   14.78693312217257
C         3.74702307146376   16.11689465329189   14.03324191596075
H         2.79692691406318   16.18975870125166   14.54427564750685
C         3.77551046575644   16.12264061498993   12.65083937344605
H         2.85321460517473   16.19529365166948   12.09151268869089
C         4.98448621495083   16.03674636324365   11.98165349010388
H         5.01205812298926   16.03900997464755   10.90150119394665
C         6.15789707303797   15.95034916147277   12.71002831453090
H         7.10726540661055   15.88945734684437   12.19611975217939
C         6.11872415375939   15.93755929536437   14.09393424321878
H         7.04596957524136   15.86315914242778   14.64071159695539
C         5.62600082543681   14.41628213943671   17.43067273917363
C         5.17519247161855   13.96153880185886   18.66943880591696
H         4.41210746113311   14.52542179956057   19.19047872020461
C         5.67672737032346   12.80412289270712   19.23632319414880
H         5.31238504822530   12.47014523771771   20.19860851117240
C         6.63975716603789   12.06582927929559   18.56775914285979
H         7.02413901259026   11.15398978367420   19.00154378226513
C         7.09909294051482   12.50063031982765   17.33713964226340
H         7.84334259198236   11.92824154105523   16.80262154915173
C         6.59839016496618   13.66518351333269   16.78214012316317
H         6.95887871311109   13.98008740038044   15.81693252771828
C         5.68742404720067   17.54470184301912   17.42580013638549
C         4.95907595308811   18.81166804818483   16.97700976905581
H         5.47717505493296   19.69804420088666   17.34310283422595
H         3.94915859672305   18.81431848353501   17.37611011571826
H         4.90931365016533   18.86806833527478   15.89082452417619
C         5.68797919512959   17.48475570639485   18.95349095228318
H         6.20907435904955   16.59700207257323   19.30689580590487
H         4.66658854665412   17.46874555356428   19.32105178730503
H         6.18765659885337   18.36217302635500   19.36447087650017
C         7.13756582469504   17.60773400984531   16.94203378575989
H         7.18024860878637   17.77330366355601   15.86873048068809
H         7.66736600564568   16.68653358845782   17.17707938464652
H         7.65780128834612   18.43250914370301   17.42942591137736
C         4.08670774799250    9.70498836463125   15.59863933080316
C         4.12497041019305   10.00004426362078   16.95860336189432
H         4.29059053802897   11.02210071764458   17.26420037978947
C         3.95831191570157    9.01383591842964   17.91250607894807
H         3.98654972613976    9.26980605957537   18.96178978842081
C         3.75378126064035    7.70066097374390   17.52290215321237
H         3.62212540773182    6.92551959540688   18.26429699669601
C         3.72175291878758    7.38589763407144   16.17550178556472
H         3.56766065424296    6.36240481982290   15.86263137802882
C         3.88705887132312    8.38051613075322   15.22723928942014
H         3.86313923010722    8.11344901054488   14.18066077550843
C         6.21698594679600   11.28745637647820   14.06438151700036
C         7.08602286962663   10.23325016743206   14.32736308011288
H         6.69197526679135    9.30776723535558   14.72406758157460
C         8.44497992870127   10.35421440935822   14.09813331789399
H         9.10518854591453    9.52430398620046   14.30896118776269
C         8.96098819330199   11.53989180309369   13.60254487047766
H        10.02270672372644   11.63761403735722   13.42536256733737
C         8.10973925522021   12.60010858796216   13.33975622496527
H         8.50746362822888   13.52989303768950   12.95799840964563
C         6.75181979099068   12.47187770059137   13.56870757380594
H         6.09457161790105   13.30617104594430   13.37411411295460
C         3.40098156488572   10.99391535663476   12.70518650623579
C         4.01981767449339    9.95142389120691   11.77430445291073
H         3.94599529045258    8.95032333627673   12.19200308201309
H         5.07150578240871   10.16944878408726   11.59680902920204
H         3.50593808789459    9.94969511161329   10.81233912268036
C         3.45356280225657   12.35108490116573   12.00124193667685
H         2.84863912191493   12.33368999603814   11.09430772790371
H         4.47454266366231   12.59940626204369   11.72130618550066
H         3.08165758047668   13.14247863110934   12.64821349553126
C         1.93939298616436   10.63726727971768   12.97715815762034
H         1.37468225657068   10.59215868924986   12.04564184018632
H         1.48373093086501   11.38861371534555   13.61889591295203
H         1.85858913224961    9.67192555201638   13.47268823657220

