60
CSD_code = RECHIS | q = 0 | S = 0 | Stoichiometry = C29H29PZr | MND = 13
Zr        1.57541273383562   15.64868196592166    5.14623964327949
P        -0.25178730515583   15.53841585872880    3.11992894695020
C         1.86645974856027   17.77971259419409    3.73280311494846
H         1.24725110334288   18.14156713168887    2.92082183660552
C         1.74689702612928   18.17018931990259    5.08185861606174
H         1.01069679017778   18.86390247306727    5.47171407642774
C         2.86439122244344   17.66556907610957    5.78121465789663
H         3.13675023305195   17.90901990758426    6.80272897693094
C         3.67419374186405   16.96080111541916    4.85955633435503
H         4.66436082514846   16.56565845559757    5.05481002642814
C         3.05108542280508   17.02864913395414    3.59428229123295
H         3.46826274264534   16.65679755922576    2.66578451310773
C         1.06796053004173   14.27955136374193    7.19669651187145
H         1.67861347877694   13.45475811678569    7.54446100077930
C        -0.07139333098340   14.16851174333375    6.37406362930055
H        -0.46860267408455   13.24266916294910    5.97553106967296
C        -0.67557714999470   15.44329073904822    6.29170520444955
H        -1.64737664481679   15.65923575411991    5.86171922940400
C         0.09077822056535   16.34051819804826    7.06332055273105
H        -0.18737356096080   17.35879178023020    7.30951414029644
C         1.17492190734796   15.62554263645486    7.61508856622093
H         1.87061735981662   16.00117742130680    8.35751382333730
C         4.91761203108581   12.43616860590490    5.02584139730534
H         4.52231670758785   12.02451156279791    4.10746336135607
C         6.06183512486164   11.91728653800341    5.59803710191732
H         6.57200112931088   11.09013054158274    5.12465850371224
C         6.55971719070346   12.45006022473385    6.77747582547246
H         7.45533010179779   12.04038183275596    7.22127163032966
C         5.90551194530968   13.51073648458074    7.38616985411438
H         6.29463488469479   13.92534712472061    8.30579797718380
C         4.76258260122824   14.03799235735905    6.81887989719394
H         4.24350298203564   14.87189599069017    7.28666350219388
C         4.24785251441507   13.50719607720506    5.62859495554505
C         3.05625973018764   14.08802705459885    5.05013516911931
C         2.27072588736160   13.78510540664894    4.02813397396638
C         2.01475618429648   12.90382296141657    3.02937183513994
C         1.61535576753887   12.23843680908927    2.07656738082372
C         1.19519049867321   11.45263682131515    1.00164831963875
C         1.67285579247959   11.69761837350910   -0.29499435497150
H         2.38637636191663   12.49512722498092   -0.45124218200077
C         1.24145078501757   10.92743645087725   -1.35327969608716
H         1.61871146104090   11.12517400405558   -2.34699730650062
C         0.32894239132513    9.90178505585080   -1.15300762794861
H        -0.00517472038630    9.30123760282904   -1.98612259111658
C        -0.14927083045358    9.65052552811229    0.12482867698336
H        -0.85936050161450    8.85131484172487    0.28576709679609
C         0.27295249939537   10.41224583691421    1.19287011456972
H        -0.09799651899889   10.21459943571486    2.18903858031664
C         0.45952605160257   15.50198895549821    1.42014726269390
H         1.17507807670710   14.68259174989569    1.35921367089607
H         0.97499306737913   16.43670902842942    1.20622122421057
H        -0.32883733520723   15.34727683046673    0.68283466409684
C        -1.26886780555549   14.00382790625515    3.04109163414901
H        -1.85368829362256   13.98408527398591    2.12096575048682
H        -1.94184028747161   13.95811300209250    3.89594085825378
H        -0.60515078805528   13.14004770839123    3.06295973217533
C        -1.60415162398561   16.77698020335335    2.83835457849901
H        -1.17748733793933   17.76905499855691    2.70002860166039
H        -2.26300849908979   16.80512548059347    3.70502206285748
H        -2.18657964610488   16.51158660710956    1.95629180268346

