101
CSD_code = RECHAK | q = 0 | S = 0 | Stoichiometry = C54H40N4O2Zr | MND = 13
Zr        7.95717070736337   14.66524164690110    2.72905302647762
O        10.76093381821494   11.68480149158687    3.30049445233116
O         8.64294509473851   15.68438424273330    4.70243428333685
N         9.72605275594351   13.72423484742188    3.29529266481960
N         9.17931932409630   12.86437092879556    5.39302639197724
N        10.00619474408994   15.39465958324006    6.50897573995495
N         8.74535073185530   11.53396658735971    7.18904933176772
C         5.79978597078383   15.13600731569058    3.91768498443757
H         5.54725609732877   16.10654403732748    4.33088931734212
C         6.39835773504083   14.07274367615208    4.62934531728652
H         6.67721271372584   14.08867017633432    5.67619581956877
C         6.42191621476649   12.93895099619781    3.79288742341598
H         6.74189133193405   11.94544263751098    4.07820514860220
C         5.80513647594007   13.29224632654288    2.57179844733403
H         5.54406015825390   12.60686769054014    1.77588779682471
C         5.42896578253815   14.64903998088026    2.64442411976956
H         4.82805147116535   15.17143929688930    1.90951566852029
C         7.28682259507303   16.97590195006159    1.74301045852391
H         6.31696110221628   17.44898780070184    1.83127032222212
C         7.70078628122529   16.13521418942477    0.69110401495877
H         7.10171642095293   15.84295161658314   -0.16247686836073
C         9.08674495782492   15.89085750039588    0.85061289147479
H         9.72826467518679   15.37874565304317    0.14208154088188
C         9.51711494909900   16.57995990803626    2.00495940590211
H        10.54482026807520   16.66252960937739    2.34199545397927
C         8.40649110453777   17.25899507571360    2.54446544859924
H         8.42239897124537   17.96047792480025    3.36870553521247
C        10.03761464074481   12.51261036851664    2.74954559243637
C         9.37243563430676   12.28961011115773    1.43494290739588
C         8.32010723574103   13.10145401053536    1.15967139414765
C         7.56196602908794   13.07347281520150    0.00216740753481
C         6.82477973898783   13.16667539299042   -0.96763831056763
C         5.98539367656920   13.27388808021221   -2.08796588092347
C         4.79511154035335   12.54148150045207   -2.16037067450063
H         4.52680383949083   11.88695045012862   -1.34311517985979
C         3.97530985020808   12.65571676022318   -3.26442326825225
H         3.05795414488186   12.08574088976781   -3.31135101714763
C         4.32095477003982   13.49602987815193   -4.31161805625887
H         3.67585001009693   13.58184374593589   -5.17366067366106
C         5.49870064731994   14.22505692529786   -4.24780782695185
H         5.77096207463293   14.88123941424811   -5.06249769376491
C         6.32716276397640   14.11972594106059   -3.14946285976862
H         7.24654423292275   14.68548637091215   -3.09720988519893
C         9.85294036930251   11.18465099931807    0.59211997884658
C         8.95978750787195   10.39711172005586   -0.13390206863496
H         7.90044077394190   10.59467420925918   -0.06064110563836
C         9.41735736254826    9.36472883559073   -0.92979209729634
H         8.71253463143860    8.76249286288493   -1.48588699958578
C        10.77385460312032    9.09662708879490   -1.01347981937814
H        11.13075915745716    8.28878366428151   -1.63637094850950
C        11.66920519802382    9.86747021462970   -0.29068656796026
H        12.72862594083736    9.66078738202770   -0.35046288905222
C        11.21568396397783   10.90180250250266    0.50591943840963
H        11.91646238808473   11.49902635458788    1.06839929409537
C        10.04762471691197   13.78106616760851    4.68729090750942
H        11.12015637503448   13.59164530425436    4.88948887457551
C         9.54764667807917   15.06770069530103    5.27673023213310
C         9.46379219865539   12.53691983890582    6.59878201112248
C        10.57264640605137   13.15315475222652    7.35497804316652
C        11.41914464925825   12.36068491915769    8.12980923566698
H        11.23840020998707   11.29804696964215    8.17986014454709
C        12.48577248468113   12.91301266137788    8.80766103756128
H        13.13506354613690   12.28202190111519    9.39408363886754
C        12.72382992712839   14.27787983829870    8.72974805247193
H        13.55494356874148   14.71571610725423    9.26053973897405
C        11.90541947077349   15.07902676456628    7.96036715409176
H        12.08875679702993   16.14056496492839    7.88718900162145
C        10.83625666500502   14.52794819941831    7.25722306657726
C         9.62372356683503   16.63189389498749    7.09957353080187
C         9.64204358741621   17.79674923187916    6.34357751067764
H         9.95894100519095   17.76004601118951    5.31286097028194
C         9.25844794671879   18.99369838816167    6.92099088333853
H         9.27169099938333   19.89762705556365    6.33123323766779
C         8.86916014066123   19.03669928445457    8.24939056756817
H         8.57230590684948   19.97290975186858    8.69651323295465
C         8.86602792526089   17.87580832153522    9.00446239008523
H         8.56707708501614   17.90366638488728   10.04129349383697
C         9.23985734283529   16.67253040106270    8.43443445797727
H         9.24065584513075   15.76759752463294    9.02399806077910
C         8.62167241699254   11.44459429453152    8.58473369465125
C         8.47558811399190   12.59272584616182    9.35902098029705
H         8.41912669909259   13.55591288344010    8.87324972572756
C         8.38040888432586   12.49668000730781   10.73422343808421
H         8.26850179443437   13.39308406603032   11.32615481128499
C         8.41139338150331   11.25735286430711   11.35098619870842
H         8.33366906390048   11.18465464973669   12.42480933171994
C         8.53137316216366   10.11080648330128   10.58202163571988
H         8.54813804245158    9.14133972320687   11.05676115645280
C         8.63816373974297   10.19836863508459    9.20760817332861
H         8.73676523693355    9.30771625349812    8.60510337955878
C         7.99714699917269   10.64794242957437    6.37223828018927
C         8.54263000919990   10.13911045881762    5.19747316206283
H         9.53257142558787   10.42732837405159    4.88038666662809
C         7.79360507281705    9.28389237224298    4.41033070179509
H         8.21977930652089    8.90606894601277    3.49349577336860
C         6.51215475007384    8.91748566357520    4.79092639508615
H         5.93186265941685    8.25020570373812    4.17188092755878
C         5.97626572650920    9.41575202810288    5.96611056224995
H         4.97693158396258    9.13980792906559    6.26796279048354
C         6.71116642167529   10.28303412609524    6.75447976823523
H         6.28637528558741   10.68344974859853    7.66365264487760

