130
CSD_code = RECKIU | q = 0 | S = 0 | Stoichiometry = C56H49BF20N2OPt | MND = 4
Pt        6.35374964309096    3.85074564643089    5.39805197948821
F         3.00932904349764    1.42987506970045    6.80832866508303
F         1.20371467449188    0.54639399122124    8.59158356175938
F        -0.96881914668879    2.08105434979341    9.22781274941861
F        -1.28011812436355    4.51807239004430    8.02450579053901
F         0.51281567132296    5.41467003863343    6.28433378822463
F         4.92933170705856    1.82182886368765    4.36437552832234
F         4.44814774536055    0.24511760523928    2.28552031799348
F         2.07247925759098    0.40780382164699    0.91903080598119
F         0.17885268994801    2.19728097754431    1.75121608576573
F         0.66377499608018    3.80252551730593    3.85049362995150
F         3.25321820883277    5.95650386086388    7.39356522692017
F         2.99922520722150    8.61097673543372    7.07849511619107
F         2.53887123350214    9.65997993369018    4.59014464811064
F         2.44099045262425    7.98137963195321    2.43061656567220
F         2.74377105736901    5.35258544507580    2.73785947419221
F         6.03733227610610    7.01601833437898    5.63770177723491
F         5.74183344208546    8.92846180710541    3.73511200646824
F         5.54363053126944    8.21351257559874    1.10193763055904
F         5.56601994911621    5.57040129825748    0.41541292497068
F         5.83884814153293    3.67134617240780    2.35128065056343
O         4.38969015214599    3.77802308839440    6.09915310862605
H         4.36541188886189    2.98257836692157    6.64098777038353
N         8.19102725989197    3.71123173956793    4.82383194178414
N         7.01507623776293    2.35491568090771    6.64927581840858
B         3.05481411508290    3.94627212609443    5.43755773588296
C         8.88663120958644    2.73309245880136    5.33474280059478
C         8.22035822960197    1.96380711832107    6.36914560797549
C        10.28874773380955    2.41299964809465    4.93292881920098
H        10.65515313302538    3.12704058083794    4.20109272450152
H        10.33949803007994    1.41283204214495    4.50500501284152
H        10.94351205066354    2.43510469327336    5.80275144658303
C         8.94190204429311    0.85423636273843    7.06204742415292
H         8.39952283806692    0.53493903153745    7.94832848116023
H         9.93809378573305    1.18002695098641    7.35411358464972
H         9.05530298042382    0.00023458653812    6.39534162984784
C         8.70685298948583    4.51399916629120    3.78010027856328
C         8.91549062205693    3.96723247127830    2.52296080010626
H         8.67891774950231    2.92670500535723    2.36652665389898
C         9.37584410158490    4.76590379360251    1.48078073603614
C         9.63904273332588    6.10021511047081    1.75249282537682
H        10.00915052717589    6.72922628946654    0.96243003031791
C         9.45149100974835    6.66711577958265    3.01380050591470
C         8.96822555945455    5.85885545148062    4.02947759524656
H         8.79749872293954    6.23278185804437    5.02561247561022
C         9.59707109029958    4.13668855462876    0.11466627195067
C         8.27121321324094    3.56097524414181   -0.39938195726663
H         7.54543057160532    4.35564224671293   -0.54683449834535
H         7.84749367100641    2.84029454150930    0.29359953147129
H         8.42969905155492    3.06352509329666   -1.35316158411963
C        10.63362706935115    3.01174555662070    0.25791648830057
H        10.84878914009955    2.58066126743881   -0.71665910550419
H        10.27135363996168    2.21796681517524    0.90518720658260
H        11.56125875921858    3.40101277520462    0.67365649039755
C        10.11622485262887    5.13868833539892   -0.91916845841754
H         9.40965032926824    5.95214379864092   -1.06385307776079
H        10.24258616607087    4.63508100594638   -1.87474237452723
H        11.08162301963331    5.54563364342173   -0.62586929567181
C         9.82882600636875    8.12267714872285    3.24032617874964
C        11.34776241222035    8.25295602877214    3.04672414906557
H        11.65853737414885    9.27869650346259    3.22895781432307
H        11.64204804730574    7.98190438711700    2.03648391335663
H        11.87570175081554    7.60423951530088    3.74298347512380
C         9.10452420756577    9.02294207794420    2.23147695411698
H         8.02943488631368    8.96378398962107    2.36852810434519
H         9.33332280507299    8.75216190045304    1.20511709277168
H         9.40579491655527   10.05679743183021    2.38112859176219
C         9.47796688390091    8.60788405938997    4.64898041293869
H         9.73931358941705    9.65921478913980    4.74178219724959
H        10.03276276361200    8.05892136151725    5.40635516296161
H         8.41405953909418    8.51271762169555    4.84697234524029
C         6.19519247108373    1.71498573349039    7.58171757829011
C         5.94730854341152    0.34440213252292    7.50815541463276
H         6.38341633186658   -0.20975071274608    6.69513363642508
C         5.10533783162493   -0.25833618446521    8.42625480999883
C         4.53187193046153    0.53636619027690    9.41895314909372
H         3.87717145188791    0.06561268424643   10.13044647485119
C         4.75885838075882    1.90399278946728    9.51163586988531
C         5.58855574682321    2.49272841984078    8.56437642972040
H         5.80756507536125    3.55098209605950    8.59032402426166
C         4.80381795083315   -1.74747193322576    8.39229215530436
C         5.55729152845413   -2.47348615886532    7.27404867669815
H         5.30898319960286   -3.53191652256656    7.30265335105240
H         6.63452851150801   -2.38057755426084    7.39850115747140
H         5.27180199586605   -2.09217634287740    6.29674251249557
C         5.21738126819873   -2.37396054913067    9.73175051852758
H         4.65512263398673   -1.95365939870005   10.56032394757305
H         6.27726224055033   -2.20952928723642    9.91799423784530
H         5.03465706575602   -3.44560935714797    9.71052287950352
C         3.30014442420869   -1.94462837703875    8.16449638617791
H         2.71457480263628   -1.51693194788836    8.97193929799109
H         3.06870029790667   -3.00504748041373    8.09974174695809
H         2.99693415110976   -1.46686159426265    7.23612389942750
C         4.18052494697109    2.76331696835005   10.62499080363881
C         3.22127931881140    1.98678118515833   11.53087871925263
H         2.39329068510311    1.56834268531290   10.96386448343475
H         2.80661336856986    2.66088813969135   12.27669539840271
H         3.73513655010810    1.18512434257992   12.05674528149366
C         3.41932862391719    3.95778273680077   10.03513522122795
H         2.56913357431177    3.61937599472855    9.44749838135432
H         4.04542186245255    4.57194053537251    9.39700745032105
H         3.04516033026298    4.58671745625393   10.83884474444367
C         5.35003993433001    3.27376522878454   11.48073785626473
H         4.97132738685891    3.85732764618625   12.31606055117269
H         6.01627381171056    3.90562216529222   10.89984229637235
H         5.92446762176980    2.43830400409096   11.87675873023863
C         1.87861023477595    3.48494966128919    6.50933828222581
C         1.96616071990974    2.23537467186729    7.11447087876168
C         1.03658394323141    1.74827454371936    8.02237072399163
C        -0.06794045211888    2.52498332331558    8.34765533380534
C        -0.21689680418318    3.76384946983914    7.73811624803833
C         0.74266516189036    4.21941333482991    6.83556190220114
C         2.83668863866763    2.93934396208086    4.15367027296937
C         3.74800352304637    1.98778691517853    3.71942398882054
C         3.51709726273012    1.14031691705840    2.64180417792489
C         2.31515600113805    1.21645604374018    1.95375128708981
C         1.35744506331749    2.13260828789030    2.37677761299827
C         1.62868694643163    2.95940883867003    3.45935800746939
C         2.94615709766731    5.53813274535094    5.09279193541369
C         3.04312713542351    6.43319211061889    6.15688810403449
C         2.91232299763218    7.80756775522151    6.01407523853528
C         2.68198990905115    8.34426354994549    4.75230586169712
C         2.61712124103691    7.48711434849531    3.66170367186787
C         2.75717351353393    6.11475813640617    3.84621519417841
C         5.91596991214458    5.29064952627710    4.04707056312792
C         5.89236589169887    6.64464257880989    4.34807495300834
C         5.75021319925194    7.63462960007172    3.38516580508815
C         5.63746365572560    7.27456822875015    2.04656155079259
C         5.65147524671099    5.92794997306781    1.70086621557605
C         5.78785399302138    4.97459058505989    2.70035735574222

