70
CSD_code = RECKUH | q = 0 | S = 0 | Stoichiometry = C21H46NiP2 | MND = 4
Ni       10.39467650719189   10.11244415127352    0.55605198160526
P        10.76610642537300   10.30367506896867   -1.63682969203940
C        10.02475174451616    8.88545755690466    2.13312051567043
H        10.82399480873347    8.94182213560982    2.86666429814542
H         9.02501767204884    9.02937229736738    2.53578863312510
P        10.35794719369120   12.21600820571937    1.30242490217107
C        10.19364269733193    8.13606668509003    0.98603167841452
H         9.32519013335256    7.69866392030975    0.49974104279207
H        11.12643873778657    7.60528935506628    0.81785445376960
C        10.65970545541512   12.06936271206320   -2.22251106678527
H        11.14381842341672   12.14417787931492   -3.19931504098652
H         9.60040453053727   12.29562132102657   -2.35673763974040
C        11.25050562352308   13.12366272165458   -1.28388442516419
H        12.23028452993110   12.80662990654799   -0.94169912297605
H        11.38786741008941   14.04428942616841   -1.86372359718610
C        10.36264547110869   13.46071079782212   -0.08396750059693
H         9.33405917780378   13.54243377800257   -0.43998484483946
H        10.65495049707436   14.43330758093206    0.31944874902551
C        12.42548054627456    9.73437385451943   -2.38449459749704
C        12.50865397876168    9.67302415693664   -3.90598283069193
H        13.53881230846727    9.46702935861684   -4.19845803454692
H        12.21906724118500   10.61672867125967   -4.36320642693180
H        11.88853694152341    8.87824693991028   -4.31008931981165
C        13.49986412494747   10.69807190476774   -1.87511665621725
H        13.40092509486946   10.82649585190969   -0.79801249750182
H        13.43626591899182   11.66713955041322   -2.36320175619464
H        14.49068834407935   10.28889879293158   -2.07279244545387
C        12.73993660226800    8.36141268913244   -1.78729089326669
H        13.74697285883090    8.04988131866856   -2.06467675759187
H        12.04492778282438    7.60026465752950   -2.12663212775589
H        12.68643868637808    8.42035198670458   -0.70109347825494
C         9.34339329138347    9.57688530008728   -2.67812816501828
C         9.47345627094798    8.05492515797337   -2.74198319707050
H         8.53080477190041    7.61408858375523   -3.06700320650269
H         9.71488875643664    7.65565462155245   -1.76013081110243
H        10.24087471400867    7.74794249922247   -3.44768224759518
C         9.14811058177789   10.12100031808916   -4.09278372330630
H         9.99700712801019    9.91083504227113   -4.73401956567204
H         8.96722397799753   11.19205803807320   -4.09981236973824
H         8.27378982762655    9.63870001681606   -4.53115864259801
C         8.10042606209814    9.90619653748710   -1.84440001802515
H         7.88924198120903   10.97337165963662   -1.85090243221802
H         8.26222955553016    9.59591324535129   -0.80925436345012
H         7.22352089071675    9.38715544215912   -2.22913444669441
C        11.76048475807034   12.86024573063033    2.42270705012779
C        12.01178169234569   11.79048138332240    3.48716520865304
H        12.90028511522697   12.03669090630701    4.06862680092390
H        12.17594618893131   10.83000333022601    3.00055624010526
H        11.17571718682873   11.69249035707030    4.17200566619463
C        11.54201785415136   14.21581567916837    3.08627598359376
H        12.46282721756262   14.52101941435398    3.58445144869838
H        10.76107124970010   14.17291424315808    3.83975297666792
H        11.29134540733504   14.98430567317421    2.35819460554604
C        13.02345055803985   12.93670078959125    1.56159051111383
H        12.98711380928686   13.77105693795222    0.86596679666519
H        13.15088070531256   12.00726870126010    1.00813064482833
H        13.89923361851959   13.06948240542795    2.19690345149497
C         8.68353116608569   12.67836641064514    2.08937666200909
C         8.60929777054519   12.12207823679426    3.51151475831939
H         7.57478664555969   12.11624755951456    3.85552345371915
H         9.18431027462618   12.72621249119552    4.20833557106362
H         8.98171238083651   11.10104022324110    3.53667415729356
C         8.29157162266184   14.15529557232259    2.10924016584472
H         8.24487096118708   14.58111393013868    1.11112024290686
H         8.97114163914930   14.75245644635604    2.70703968907318
H         7.29778600503105   14.24345058469402    2.54940193421008
C         7.67255025506634   11.90919760255889    1.23214863417733
H         6.68203862970662   11.92933275699455    1.68468123229783
H         7.99078167488964   10.86826417862822    1.13751162312352
H         7.59452033537366   12.33352675965778    0.23347217765177

