73
CSD_code = RECKUG | q = 0 | S = 0 | Stoichiometry = C24H44O2P2Pd | MND = 4
C         6.04097384282975    2.95103810472903    2.02821005072088
C         5.76797949002464    0.53262682190018    1.39587631153085
H         6.55273475281986    0.21553214908323    0.70185318526837
H         4.88884400086518   -0.07971564774507    1.18860681606661
C         5.49362362057777    1.99629124034592    1.16388153699037
C         4.74449938859315    2.37923474520069    0.05823208982465
H         4.32260680366783    1.62230342866515   -0.59036591190925
C         4.54392187416722    3.71720082884540   -0.22385389689463
H         3.95880482559780    4.01183675249824   -1.08306013220620
C         5.11071899616275    4.67473765328594    0.59604185850830
H         4.97438374368993    5.72506010209665    0.37239476721564
C         5.85302601773663    4.30062080831797    1.70913327610735
C         6.44979564308174    5.37169910757516    2.58762435261141
H         5.65310382795893    5.82218090004954    3.18825915265291
H         6.90586795371676    6.17160135890324    1.99628789689413
C         4.84139776031692   -0.19768991081904    4.07450148959781
C         7.74953438595810   -0.96312294747679    2.97592936500905
C         7.46218836718619    5.49834599084263    5.33425968403958
C         9.33525189969404    4.77114127093360    2.89154402396512
C         5.23087030872035   -0.76375632454821    5.43869835963350
H         4.36502102456761   -0.76133126987037    6.10070593075963
H         6.00614787967280   -0.14634694296049    5.88848194541479
H         5.58370816923527   -1.78882171091865    5.35380286242301
C         3.92600638073063   -1.18461051717230    3.34992636496821
H         4.47890413972932   -2.04459678441503    2.97843355841013
H         3.40434788230183   -0.71646651034981    2.51821060978848
H         3.16991706883150   -1.54609116440133    4.04648287997196
C         4.12313200141496    1.14290223157696    4.28538499862161
H         3.83486100987683    1.58753009225656    3.33081344201296
H         4.79210598985006    1.83995457616996    4.81301166936201
H         3.22427887810156    1.00399457269036    4.88554434138004
C         8.83905738196773   -0.21468379104618    2.19369250621887
H         9.02486000192908    0.75693060308426    2.67721438191084
H         8.56411937304556   -0.04633203339166    1.15322702050548
H         9.76851162660646   -0.78223017005693    2.20516291629442
C         8.31546610770121   -1.26017816554051    4.36441647954515
H         7.66450644328424   -1.91316902550325    4.93707136352074
H         8.45309121909207   -0.32288906048168    4.90719325416473
H         9.28515369952724   -1.74911235868581    4.27475260341385
C         7.33640748860466   -2.24685399170443    2.26343156141982
H         8.21296502585873   -2.87297832581039    2.09776859708511
H         6.87966793891560   -2.04199315232426    1.29695397785297
H         6.63131748325938   -2.81421681267963    2.86731044981179
C         6.12871707262121    4.96075094190678    5.87280789651191
H         5.95140431898707    5.32281908334363    6.88502996038694
H         6.15213632268111    3.86581840209886    5.89554658825617
H         5.28831803131901    5.27244091871745    5.25260425447572
C         8.58255668891878    5.07446745175419    6.28299074245442
H         9.51490985683856    5.58095985249752    6.04293669849848
H         8.73802303543816    3.99794364457808    6.20845813849849
H         8.32198705306606    5.32239026493441    7.31175255886477
C         7.40802588779221    7.01848904988474    5.20464566657254
H         7.21024142733633    7.45499794822036    6.18368705722739
H         6.61572786345107    7.33758785999638    4.53114600400468
H         8.34929630188912    7.42242891038619    4.84229930164629
C         9.15480651261578    4.14024532384202    1.50550949244048
H        10.11270629990751    4.09382322315176    0.98800264005262
H         8.46221442019020    4.70700619481310    0.88604236129276
H         8.76852486581084    3.11721506053400    1.61336445281361
C        10.33861709333129    3.90858640233784    3.66332535076370
H        11.21058070502878    3.69882354858882    3.04455152393388
H         9.87270722032224    2.95774559156694    3.94736559840114
H        10.68202947609309    4.40145238188357    4.56829305394589
C         9.82729573364848    6.20861576177817    2.76416994395341
H        10.08932498884636    6.62077872166215    3.73586560470047
H         9.07587633550183    6.84822921632094    2.30451093318491
H        10.71985139165896    6.23640422449795    2.13944340388549
O         8.23192281853480    1.83394253156651    5.37441933641991
O         7.09497412737344    1.75352824973132    6.25967669933419
P         6.38749283185351    0.32881988442334    3.12760292315389
P         7.65691958614802    4.55510129741840    3.72005264735281
Pd        7.10613825825147    2.39336424224754    3.64381620156213
H         7.50599175745027    1.91154709475173    7.11853497465835

