49
CSD_code = RECLIV | q = 0 | S = 0 | Stoichiometry = C13H27N3O5Os | MND = 6
Os        4.69209457597461   10.57430656563413    2.90609724216595
N         3.73561887208498   12.30694677588674    2.73625693409697
C         4.36756828342034   13.46276746278499    2.52192110084417
O         5.55291457298029   13.50279732810606    2.24332513705522
O         3.69408421442396   14.63766798294504    2.58818427809924
C         2.35516575605832   14.64573678665321    3.05021102592179
C         1.58960533136157   13.44252597426271    2.51927528384654
C         2.31487821310607   12.20347087325224    3.03616609024648
C         1.88984308421169   10.83245231749160    2.46441355463771
C         1.79461398981823   10.82811018925142    0.92783767034991
C         1.47206078492949    9.43225006993471    0.40853418706996
O         2.81717146074313    9.89568288169512    2.91962519854190
O         4.83783703950525   10.68168860019882    4.51045731527453
O         4.95810750797911   10.31836512430798    1.33697402922834
N         5.66425651847815    8.33981209365576    3.13629509704485
C         7.09332276044449    8.42305269504431    2.82511806951858
C         7.76343061297456    9.62720414970311    3.48660426208801
N         7.20782999720638   10.90361056598559    3.03106398714798
C         4.99190352636271    7.46127974925365    2.18346986273622
C         5.43720520593641    7.84347948884260    4.48877594523844
C         7.53592655951605   11.95550261170943    3.98866956808170
C         7.72532811694403   11.27376414643964    1.71804502284723
H         1.93417896113585   15.58942338151565    2.69290704765044
H         2.35075175006056   14.64753203289221    4.14833278092904
H         0.55597797307470   13.45682871817050    2.86267504236566
H         1.61255475121157   13.46854428406191    1.42993453460006
H         2.19762146223225   12.14235209916137    4.13282315055738
H         0.91564890679562   10.53391229648684    2.88681785397804
H         1.01921781037525   11.52609278521087    0.60775845586463
H         2.76059602085942   11.14830003853196    0.52899002874590
H         1.44920776006588    9.42722843498409   -0.67858574155139
H         0.50512614145538    9.09878199059158    0.78076966901164
H         2.23485434281861    8.73738628322923    0.74841036856247
H         7.19425584005271    8.51106479684028    1.74193196067499
H         7.60983159197234    7.50351101957532    3.14554731299911
H         8.84617682593108    9.58596411784269    3.28091948752380
H         7.62469710721551    9.56522184803424    4.56763451193421
H         3.93410810384920    7.41420951239368    2.43335881243070
H         5.08653543336769    7.87420459281151    1.18036374887636
H         5.41861174848598    6.44945534369295    2.20489858296886
H         4.36549723584644    7.78239668657954    4.66508727749074
H         5.85081857776628    8.53520020097125    5.21829060467023
H         5.88873336610637    6.85155969641234    4.62767083833561
H         7.14536205205556   12.89711255992872    3.61104058467542
H         8.62156909951060   12.03910826633632    4.13249782528372
H         7.05820052575327   11.73939122082363    4.94295309706929
H         7.29107818347865   12.23107181286311    1.44096361265397
H         8.82122048607237   11.35261644476707    1.73315195202519
H         7.42590095798502   10.53995510225545    0.97363573759216

