123
CSD_code = RECMIW | q = 0 | S = 0 | Stoichiometry = C66H52OP3Rh | MND = 5
Rh        7.87399075280409    2.10448038005598    5.88674298582826
P         7.12045885394637    0.12492256128543    7.97835998535565
P        10.00747623918451    1.73765441765188    5.32399053872743
P         8.19192413248002    4.32746756608211    5.77174431378995
O         7.83121100749947    1.24835815615335    8.61872939866377
C         5.78909453701645    2.25124225049935    6.32242001948309
C         6.04743087754920    1.05571887857347    5.62565066918229
C         7.03638517245980    0.16112339287442    6.14243021800957
C         7.27967967921179   -1.14428682803034    5.40832049691542
C         5.48682022164323    0.86023992308225    4.26736378089135
C         6.29437944368383    0.93725434009670    3.13689877642943
C         5.75381526518550    0.77186149392923    1.87603727965447
C         4.39971705636238    0.51683985270947    1.73115237593099
C         3.58986047075148    0.43653863867220    2.85134936897827
C         4.12790646982990    0.61212011678858    4.11423491955015
C         5.40526600561875   -0.04095173047204    8.58584645357323
C         4.40433192680140   -0.69520309995931    7.88139780826805
C         3.13747045462221   -0.80218462245536    8.42561827062630
C         2.86601360920930   -0.25682867900190    9.67031644829819
C         3.86205220203330    0.40248396690147   10.37203832034499
C         5.12948942403084    0.50889714468708    9.82960505986616
C         7.86712826050955   -1.46185584358584    8.47824152394714
C         7.23332229290912   -2.68942235069898    8.33507852346658
C         7.87089643447137   -3.84462392972655    8.74760530343551
C         9.13955000880833   -3.78079855828979    9.30352425013266
C         9.76804668002326   -2.55660678567056    9.46018000718057
C         9.12941072146219   -1.39905796682109    9.05295932919926
C         7.18919673397394    5.23540620241543    6.99954571552448
C         6.45098836472235    6.38426778155203    6.74968412968552
C         5.68968899382343    6.94910708823785    7.76006435847465
C         5.65730450595092    6.37424682534626    9.01876622001726
C         6.38081782669882    5.21809200376527    9.26954432391853
C         7.13603182564006    4.64815930827073    8.26384705472110
C         7.79939328325834    5.18549638633308    4.21178325516051
C         7.10214333035285    4.48315740005350    3.23799062040689
C         6.79825810289477    5.07973143307594    2.02841533488485
C         7.17992977823346    6.38928970571653    1.79111835397787
C         7.86186617501930    7.10086248802546    2.76544048537063
C         8.17791982784427    6.50241108633107    3.97040780708675
C        11.32525057415822    2.21291266176975    6.49875170591897
C        12.67172117403571    2.18518733638377    6.15303783350767
C        13.63134750988321    2.48900789016861    7.09897146710915
C        13.25476769853175    2.80910845347894    8.39381754122383
C        11.91580180275486    2.81496055261027    8.74672099191978
C        10.95194189116668    2.51286860288921    7.80212479065557
C        10.77135538287823    0.12126170801964    4.91709058326533
C        11.61305741541591   -0.16449082060547    3.84955841043378
C        12.17598740144703   -1.42468086321744    3.73535766119324
C        11.91934296425671   -2.39953217636057    4.68474433985797
C        11.10272358889847   -2.11163774833148    5.76718464899171
C        10.53748904607485   -0.85735163134423    5.87811251804142
C        10.88986421322938    4.74596710705965    5.18856294859761
C         9.87101358757904    4.99714095451579    6.09171344439875
C        10.16549328681765    5.64472958283313    7.30761416137804
C        11.43917709838289    6.02538256716081    7.61313935275763
C        13.83172592932713    6.11734432931218    7.03350223307780
C        14.84745871328822    5.84652524288779    6.16132583972946
C        14.57390928003431    5.21662494118532    4.93776064479233
C        13.29497907344606    4.86778161311191    4.60810020574543
C        12.22210306801948    5.13260054326845    5.48745646609185
C        12.50149933763414    5.76888352208541    6.72403716317447
C        10.58836377231850    4.09694070578055    3.89311582322361
C        10.27783227327288    2.75191727876138    3.83414293081812
C         9.88508804068783    2.17836505747427    2.60496397994782
C         9.85505943873747    2.91494099693822    1.45957047265706
C        10.23233459609192    5.05162263256847    0.29745413286231
C        10.60520032855619    6.36576429885988    0.32567405804505
C        10.98857922635518    6.95839546912502    1.53695515953425
C        10.98385135304361    6.23495801380858    2.69635556324859
C        10.61234907288241    4.87294432915567    2.70161405945560
C        10.23220474678964    4.27435772707524    1.47240765793912
H         5.07967670364770    2.94858624390082    5.88136439284672
H         5.75242358403004    2.23951588966021    7.41047345002601
H         7.68557442444585   -0.96905665720212    4.41319345345529
H         7.98366344001431   -1.77472483540841    5.94633923179139
H         6.34706666282748   -1.70223610195465    5.28763962759542
H         7.35280058390777    1.14673366427943    3.26267794340799
H         6.38855191222514    0.84463259337838    1.00436837158384
H         3.97504042199346    0.38524309230675    0.74655439074111
H         2.53271908830498    0.24169797036518    2.74061953545576
H         3.49453498869629    0.55989002559693    4.98947371580503
H         4.61120918025304   -1.10669271579349    6.90349916849935
H         2.35656761811488   -1.31019977606081    7.87729878260080
H         1.87446550987465   -0.34228892637444   10.09065195170542
H         3.64824765059785    0.83216639084704   11.34010961807784
H         5.92187893651562    1.02600324923439   10.35273083415798
H         9.59604590578043   -0.43167980602011    9.17821724854829
H        10.75359413759572   -2.50419651305296    9.89995412549460
H         9.63415334310868   -4.68770785584008    9.62030276303800
H         7.37819815172575   -4.79997617847050    8.63657818645023
H         6.24252528423016   -2.73894040509272    7.90726332268608
H         6.45785454201070    6.83500334412453    5.76759252403089
H         5.11472163699683    7.84219270897180    7.55971620131407
H         5.06004146812371    6.82035865902921    9.80093843392656
H         6.34642014728097    4.75860236871990   10.24685012516226
H         7.68259593877194    3.72833504872814    8.43801751549221
H         6.80666576057767    3.46166066205124    3.44301071072927
H         6.26435539680627    4.52337138272505    1.27155090091928
H         6.94750216717671    6.85899731898206    0.84655569218287
H         8.15490339264164    8.12413758205336    2.57951126169375
H         8.72744460723277    7.04923076351824    4.72525435628877
H        11.83563819083729    0.58978775630602    3.10774623158592
H        12.82535164891403   -1.64510526784624    2.89980681834398
H        12.36177590277472   -3.37997870974688    4.58481656113894
H        10.90856427443421   -2.86164363797310    6.52135238291348
H         9.90461771077332   -0.60587540576314    6.72082238195462
H        12.96295802486882    1.93123301459598    5.14307075799944
H        14.67716878450787    2.47828099771467    6.82747704663633
H        14.00977878390915    3.04782969597355    9.12892119189355
H        11.62371051210145    3.05280358287901    9.75933523458866
H         9.89892269287444    2.49926207871885    8.05906094369671
H         9.59653378073448    1.13509154755426    2.59322852427978
H         9.54327504551058    2.47037587290697    0.52477971446880
H         9.93417624638403    4.58372293079362   -0.63027873018733
H        10.60721968885505    6.95426568690689   -0.58017523654369
H        11.28487535092809    7.99726572635339    1.54879078873991
H        11.27493490589075    6.70220510755392    3.62501626758987
H         9.36339184144980    5.83969268784081    8.00423434070978
H        11.65256032988653    6.52145551834374    8.54944048835390
H        14.03138346533187    6.59952368710308    7.98000794710354
H        15.86538387259081    6.11269489355830    6.40647648371481
H        15.38613530432823    5.00604464539240    4.25709888748963
H        13.09026122182748    4.37959713160836    3.66668026445885

