43
CSD_code = RECMUI | q = 1 | S = 0 | Stoichiometry = C12H27CuN3(1+) | MND = 3
Cu        5.47450499682870    5.18288789153832    5.86441420612621
N         6.07296779359051    3.60694466626964    7.07867623847862
N         7.05470854223347    4.62885965383912    4.63923254196162
N         4.15342286608633    6.45729681601063    5.87995144453889
C         7.41510793659690    3.23594416830441    6.61278973981285
C         7.44758146094488    3.28609170122800    5.08509506816688
C         5.91148806131456    3.85167680650264    8.53423984828116
C         6.60785187682690    5.16070542475929    8.90234784092480
C         4.40738324087180    3.98672959777338    8.77846911421885
C         6.46406672319382    2.69339512322771    9.36639343825257
C         6.80388935217248    4.80780073874059    3.18663612622055
C         6.63826116911867    6.31252913341776    2.96627407320322
C         5.50846432222953    4.09131270231646    2.80945748381893
C         7.97148208629951    4.29142931016793    2.34437575664230
C         3.31472533205941    7.24328189985099    5.90749284395941
C         2.28121523226360    8.21337450296959    5.94258981891877
H         7.70550218168814    2.23399292903044    6.94482498342920
H         8.13166784548465    3.95554167418914    7.01301067140477
H         6.73269823927993    2.56503326530998    4.68454480589252
H         8.44937428314851    3.01223819192335    4.73889633136863
H         7.68896513903516    5.07406593489686    8.83836588486944
H         6.27793989292554    5.96011179260833    8.23829992403988
H         6.35913121761772    5.43616737603670    9.92268414333559
H         3.98782405417244    4.75435198590525    8.12820071271816
H         4.21469248584611    4.26543044547836    9.80973076079255
H         3.89646794022064    3.04650271456336    8.58219485496164
H         6.20069737163276    2.83533679994607   10.41038508078140
H         6.04172328236983    1.74534549415765    9.03922163903472
H         7.54729419589829    2.63656041356861    9.30151553446594
H         7.56755346195420    6.83959192334716    3.17171642325606
H         6.35644568793945    6.51594468620922    1.93793013657299
H         5.86158952471780    6.70599012601144    3.62213272603618
H         5.22656099492877    4.35061412270874    1.79352132128316
H         4.70389778565010    4.39499841610957    3.47973729965718
H         5.61660418628647    3.01124101793392    2.85622608116333
H         8.05002337058417    3.20866263688749    2.39225548218467
H         8.91157397844526    4.72762870643951    2.67631289150687
H         7.82229570096874    4.56791992376435    1.30481532611534
H         2.71292428892517    9.21278556875676    5.88023790241568
H         1.60659408401024    8.06202975124581    5.09934502784209
H         1.71946171520196    8.12196934435955    6.87282166814568
H         5.44190614181677    2.84373783272659    6.83334294283041
H         7.80976995662026    5.26724678896921    4.89089386037023

