98
CSD_code = RECNIY | q = 0 | S = 0 | Stoichiometry = C36H54Cl2OP3ReSi | MND = 6
Re        5.53328674773914    4.90391443262146    4.05005956266980
Cl        5.76676179450646    2.78823063773087    5.21546803294639
Cl        6.19125132598625    3.80543057794497    2.10828289504212
P         7.89483210664483    5.18763866197554    4.60367897311159
P         3.31287849497372    3.93589274049935    3.68965279807445
P         5.36327748782938    6.63584639626475    2.37137941071633
Si        0.08189503116507    5.20575771274188    7.84043015471883
O         5.33591627807018    4.59771730373078    7.96022748540881
H         5.24813599112953    4.13517376292303    7.10911017044562
C         5.09757843227295    5.92787486596046    5.54013070117484
C         4.93092466724256    6.69737485799291    6.75527529819210
H         4.15718901055409    7.46277059294592    6.64096408283050
H         5.88284914167774    7.19210481764583    6.97177596016493
C         4.56151589381089    5.77022779893493    7.96701707448239
C         3.12623510709503    5.50515187526005    7.85365037129114
C         1.93300231602577    5.34414410907102    7.76714964526236
C        -0.61399310777217    4.25983503994237    6.34066337931765
H        -0.24961934564533    4.67414865714998    5.40551653209365
H        -1.69926056830121    4.31011282750013    6.32133270878943
H        -0.33638238385610    3.21093326742769    6.37347158593553
C        -0.61008016699074    6.98423635666149    7.85778637148054
H        -0.39454847129285    7.49719476913835    6.92572431759699
H        -0.17675951696845    7.56902430288181    8.66377107634709
H        -1.68794169172251    6.98789435745558    7.99249085153840
C        -0.36457920391664    4.30213897697154    9.45887832660362
H         0.09882796027897    3.32095443595991    9.49829560008406
H        -1.43780150159028    4.16420969944250    9.55643982756171
H        -0.02400514124765    4.85833640595839   10.32718983518437
C         4.81950517421079    6.46954763394551    9.34459874716023
C         6.31990128175542    6.68924496372453    9.55293881018677
H         6.49986541233326    7.03722583470051   10.56736760012966
H         6.71962739914796    7.43518114495491    8.86904723582798
H         6.85106711934743    5.75346643099502    9.40505967595177
C         4.30955933822827    5.53195494988371   10.44493935087933
H         3.23346655465874    5.39965800215725   10.36541687551425
H         4.54164826420499    5.94230357337604   11.42506693231243
H         4.78632089958086    4.56102108669937   10.34674573978790
C         4.07766441285837    7.80421473930887    9.43378816146899
H         3.02274338862355    7.67086740142088    9.20405202192987
H         4.49541430207451    8.53966444012212    8.75012446076741
H         4.16316793452229    8.19842136739695   10.44393965697915
C         9.07040854393975    4.44973695735581    3.44032770361342
C         9.08901085947869    3.06035011752941    3.33920801409163
H         8.43916739264557    2.47019451997391    3.97184806920564
C         9.90465514658031    2.44162837278407    2.41224892894995
H         9.90939497965951    1.36398407681122    2.33291415814625
C        10.70254459945371    3.20403277192775    1.57391062567622
H        11.33548370520818    2.72075623807207    0.84341872359079
C        10.67682231746364    4.58533228936838    1.66242781925249
H        11.28882056057168    5.18276692490770    1.00133857162764
C         9.85865421913493    5.21086452533389    2.58640625402764
H         9.83134832407075    6.28957099383600    2.63303421538187
C         8.52820499559164    6.88442637772470    4.87471879965886
H         9.59080689689746    6.85004291651661    5.11128742467429
H         7.97848745923884    7.30832962794418    5.71243668858494
H         8.35883269076969    7.50169641933603    3.99676068881771
C         8.36457723130523    4.42962899465984    6.19889983939516
H         9.40897211059367    4.65384426017318    6.41524519655266
H         8.20912635566991    3.35413101921676    6.16466595937031
H         7.71142343430429    4.83753515990045    6.97020580975313
C         1.94237820226205    5.08292035920066    3.33379515576563
C         1.83348748747692    6.17483260451707    4.19067357958565
H         2.56151310618797    6.27246539097909    4.98520103749995
C         0.82432679862833    7.10204768291886    4.01813045998521
H         0.74667484210475    7.94739875280960    4.68635914609200
C        -0.08622651695901    6.94894362214154    2.98320623804653
H        -0.87677474560210    7.67161717855207    2.84455457587290
C         0.02141091928752    5.86854679018132    2.12463429633669
H        -0.68567633606065    5.74881123271606    1.31632408796707
C         1.03293279564903    4.93706454770650    2.29528713219093
H         1.10677063395888    4.10200781074836    1.61400213631799
C         3.21043729103926    2.64410452335672    2.41004838215844
H         2.22932886484361    2.16906182765130    2.43228265111568
H         3.97910630504832    1.90516324962875    2.64167196826096
H         3.41894819857253    3.05980687212129    1.42538623466148
C         2.58662722926713    3.05868813119399    5.12054706604243
H         1.59236287075266    2.70709062867720    4.84689253739880
H         2.52270477527896    3.73915002964148    5.96833002263424
H         3.22703442609458    2.21906276703884    5.38386591530125
C         6.87400784155463    7.19908466904069    1.52176884333703
C         7.43583292494951    6.42362652255708    0.51191344075287
H         6.97518814849903    5.48895960917904    0.23158648656023
C         8.59503579613826    6.82899251521253   -0.12338706141837
H         9.01964667178510    6.21479313467011   -0.90397961172973
C         9.21110101569098    8.01387820026239    0.24130126230103
H        10.11720090739967    8.33120243605644   -0.25397872617744
C         8.66077946900720    8.79176172577658    1.24680177014447
H         9.13724341937217    9.71795776612239    1.53642075443291
C         7.50193975360842    8.38780032749028    1.88572093046877
H         7.08018684697640    9.00563914217524    2.66533941791838
C         4.59810203949916    8.21045665404458    2.92348231565889
H         4.62044530641867    8.95897671888874    2.13297621084585
H         5.10997671077132    8.57472255473879    3.81095692266092
H         3.56741016607837    7.98565389340928    3.19356713336092
C         4.27724743373666    6.25980593418125    0.94591898084947
H         4.33318873121229    7.07628905028389    0.22518024089249
H         3.25499225741060    6.15222775634716    1.30885463954411
H         4.59032742017335    5.33139301503804    0.47386163803100

