48
CSD_code = RECVUT | q = 0 | S = 0 | Stoichiometry = C17H23FeN7 | MND = 7
Fe        2.14596624245027    8.48115838699724    8.06671864095764
N         3.37816388202516    8.16924283780138    6.51417743739201
N         0.85975169503366    8.14477961413971    9.54423981661901
N         2.00460333855946    6.70314871097648    7.92903491583414
N         3.36285310991576   10.80061153058273    7.33079330499777
N         1.39908513392535   10.82254330703825    9.16157944758353
N         4.51362953394676    8.62071683350661    9.95167238932743
C         3.52792133219873    6.90453476646301    6.20434488861548
C         1.17450115711885    6.00762789091932    8.76749931278030
C         3.60884434085370    8.50185952416238    9.24960461397096
C         0.50409409259340    6.88888584402672    9.67308749286511
C         2.72515760526246    6.01682327568941    6.98934235511951
C         2.62740726746353    4.63142770159920    6.87581407160027
H         3.19376084893888    4.10297868682354    6.12617443853050
C         2.25194633091374   11.98837911810743    9.08294814230354
H         3.09819689964511   11.83144321307711    9.75776005806118
H         1.74089549453501   12.92113996310085    9.37309021404536
N        -0.12769964309262    9.33156846268021    6.25421874509208
C         1.06151227719466    4.62133222422834    8.68370799714551
H         0.41377979129457    4.08441630728450    9.35769318084869
C         2.76078219889748   12.07661014092600    7.64626803332632
H         1.91329841147987   12.22524398690494    6.97097195199377
H         3.45256771524654   12.92710925580869    7.53024826380048
C         4.15295538914713    9.13821387174171    5.77294563857656
H         4.18941692498436    8.88527338280029    4.70704395017340
H         5.18086223754063    9.13713658211897    6.16253339697042
C         1.08313800567151   10.37880215478678   10.50052737800652
H         0.54847821979824   11.14192866162817   11.09444904316581
H         2.02518278983045   10.14033657121393   11.00261732305940
C         3.55947991339658   10.53403932803312    5.92467700653532
H         4.22089375532420   11.26912994256590    5.43093660333688
H         2.57926983140520   10.56363353887363    5.44021363133875
C         0.72973150223840    8.94276937949779    6.91706170541531
C         0.23093488715940    9.11820304742505   10.40804131123394
H         0.08162605767677    8.71917159038994   11.41759379832106
H        -0.75206661971935    9.37408982418751    9.98827777217918
C         1.79244428082640    3.93153147484369    7.73095657999606
H         1.71213867288599    2.85828212683023    7.65530253558044
C         4.46538282947619    6.41491271084944    5.14079906778383
H         5.46029351205247    6.83265978103111    5.29101686599177
H         4.11613644174921    6.71609535394216    4.15218631751198
H         4.54171156717462    5.33356550221198    5.15991468263785
C        -0.52629903577640    6.40962448037477   10.65223372096103
H        -0.15979911684807    6.50476103069318   11.67539006575275
H        -0.77169470893928    5.36846229487370   10.47438819331746
H        -1.43880917184476    6.99793658962896   10.56122954978925
H         0.54602654956646   10.97936409545780    8.62953949472926
H         4.23514622882306   10.68869510115626    7.84143465482581

