92
CSD_code = RECXUU | q = 0 | S = 0 | Stoichiometry = C43H35ClN4O8Zn | MND = 5
Zn        9.04813397974994    1.46891576077689   16.68264616475086
Cl        8.04122357381753   -0.42948103013441   16.82988774573874
O         5.97963127426940    1.87693133844719   21.17326878603160
O         4.13872259119450    1.08392384969620   20.16025556237629
O         4.54437943575395    1.40048294509323   17.05501363603765
O         3.35153347511023    3.05769471247189   18.00619542941187
O        13.11627377457556   -2.00610100649271   16.89844983491532
O        12.59865622574013   -3.30635092668710   15.14285148819252
O        10.67494695011004   -1.72978009720402   13.10982586676644
O        12.90015299684943   -1.67893978613892   12.83345920513974
N         8.97526736803819    2.29084322298828   18.67283049621282
N        11.03544720378638    1.15791214499798   17.42618132759292
N        10.00833065567341    1.81387954231579   14.94033487220507
N         7.78805398275270    2.96310863767721   16.25330174535912
C         7.93004180592508    2.86717841093466   19.22807418278525
C         8.01742740176848    3.49105994653179   20.48780579566106
C         9.19788761008893    3.43261255069664   21.18428785142860
C        10.31114709685307    2.78503213930483   20.61697563814738
C        10.13845404177003    2.24321541070298   19.32703141842233
C        11.58603420133016    2.68712042305005   21.24264589363284
C        12.64106904766432    2.12268645303141   20.60120247273772
C        11.24795869298142    1.64011042041856   18.65430948000976
C        12.50912674097401    1.60388692495505   19.28222846644492
C        13.57549322311920    1.08311287027578   18.52564051844045
C        13.34415114455777    0.62434347009162   17.25456039083343
C        12.03121552877657    0.63916757643929   16.74114589054468
C        11.74373886689074    0.15919160427668   15.37521644702726
C        11.03634268865902    1.08554525713463   14.50589464281681
C        11.28637319950245    1.34278547858357   13.13197855400710
C        10.34748814884244    2.25480570211251   12.73544604935681
C         9.53797760630770    2.53578493376962   13.87802404481653
C         8.41190417214045    3.36758620848509   13.92273185408326
C         7.59870569168301    3.57257153429264   15.04182564279099
C         6.46022018324917    4.43031078710516   15.13460531773881
C         5.95893679047250    4.28775905048775   16.40073877742850
C         6.81087964454061    3.36301748904642   17.06102531461596
C         6.68924814084168    2.87644144248531   18.43091957584627
C         8.03943991723125    4.07144915938672   12.68048755305665
C         8.90846758611510    4.98990911156684   12.09840614148976
C         8.55021037814923    5.65166157305691   10.93802486785673
C         7.32795852547523    5.39532062246465   10.33909994643594
C         6.46191082712703    4.47647703382068   10.90847383619323
C         6.81063885778950    3.82169700923366   12.07556517290486
C        12.10645285386930   -1.06547306975131   14.93038295848786
C        12.67374498883361   -2.13487008535868   15.78184381569645
C        11.77465870515030   -1.52027121003108   13.53640565567801
C        13.06375169704594   -4.46010231854165   15.84175783908846
C        14.57294798899527   -4.61357273044732   15.71415149975327
C        12.74859607335461   -2.16761538544784   11.49768059190165
C        14.06175127743760   -1.97423103097837   10.76282550807649
C         5.50065828044344    2.42723174830284   18.88399003211520
C         5.26585582428129    1.79500747230387   20.20212860938187
C         4.32630911467058    2.35562641742680   17.93963599231892
C         3.75208384433742    0.40147953703289   21.35275862340603
C         3.01344450247153    1.33243673802664   22.30383849023472
C         3.59168016717468    1.17850453654087   16.01465134693320
C         4.23395629664135    1.49500024690656   14.67269702801575
H         7.15900317706616    4.00226523014005   20.88888950283992
H         9.28554370113555    3.88674198020256   22.16049624361919
H        11.69663402064977    3.08742781270064   22.23973770267039
H        13.60916437359333    2.06541946893309   21.07681597746927
H        14.56882955664602    1.05961904203991   18.94952038260068
H        14.14872038012712    0.25016521756035   16.64404593707395
H        12.08020561700854    0.92094651779988   12.54729714775457
H        10.21928446659863    2.67423326608966   11.75665941454079
H         9.85756857542250    5.19362950944798   12.57221024489359
H         9.22789705270665    6.36894885423665   10.49872233681601
H         7.05177639035534    5.90966207279880    9.43071627447784
H         5.51000870666108    4.26962265721277   10.44221250969670
H         6.14343046720298    3.09565306002794   12.51563584019041
H         6.08911252426934    5.06722741023663   14.35500989217637
H         5.11170446342735    4.78065619212627   16.83607781128717
H         4.64704097557526   -0.00657579741007   21.83399142112043
H         3.10628933216143   -0.41121142251351   21.01499705169343
H         2.71130477750810    1.80337285029493   16.19758760583254
H         3.31589528179023    0.12212339886029   16.07063792561746
H        12.54064617644520   -5.29939065695194   15.37940831321122
H        12.77727890254648   -4.37584745848681   16.89501489670300
H        11.93055596236752   -1.62229308586885   11.01359016233148
H        12.47123165265278   -3.22621908140518   11.54548290219541
H         2.65485758580090    0.76975653450200   23.16104302451580
H         2.16777008554337    1.78904896246363   21.79542212763046
H         3.68213858559622    2.11663265721950   22.65024472914646
H         5.15935993438034    0.93212128198369   14.57548517568008
H         4.46109155681323    2.55690515513265   14.60653609602655
H         3.55799840001622    1.22107810179838   13.86727083952029
H        14.88667133185123   -5.53841333932864   16.18965446480292
H        15.07306831761874   -3.77949438339189   16.20018692285882
H        14.86038130084668   -4.63624274252732   14.66562389525491
H        14.85819382344338   -2.50886513828280   11.27324209200357
H        14.32160753741020   -0.91950187355108   10.72502567569203
H        13.97154214383102   -2.35333302162218    9.74898557068846

