109
CSD_code = RECYOQ | q = 0 | S = 0 | Stoichiometry = C56H48Br2N2Ni | MND = 4
Br        6.18812142992998    3.04259902673720    4.04290567312420
Ni        7.34244523727487    1.71164538775382    5.40183751831900
Br        7.54217800472837    2.05780617729576    7.59029433971674
N         6.57761514637753   -0.41193202163962    5.10481312742130
N         8.82085649655859    1.09578997386303    4.66072714938903
C         5.40974309181633   -1.15744243141648    5.34899669594402
C         7.88077289238644   -2.31428754801876    4.06669269082148
C         3.09264127557547   -2.65434302726605    5.83168687888744
C         4.39265446921960   -1.19486475405756    4.39067376802923
C         5.75622391145283   -1.90741256825084    9.02035308876476
C         4.55582173253913   -0.41498496251341    3.10076225943184
H         5.03151981682762    0.53985531313379    3.35707210641096
C         5.24068993511347   -1.80871947841081    6.57221063348783
C         6.31772750048215   -1.68619079564557    7.63285596274243
H         6.68056800720721   -0.65118151459375    7.60582908783391
C         8.80113316456750   -0.15635339647281    4.31934820408009
C         5.48778495990908   -1.15609095829698    2.17588280742635
C         1.82101410151776   -3.45878841007882    6.04428279353512
C         9.80323689232551   -1.00098713829981    3.70035012603574
C         9.85415387043482   -3.38022791442917    3.01319397495148
C         9.10733880611872   -4.57885339568977    2.96032479463477
H         9.55785469405621   -5.46537818287278    2.53851822435177
C         4.09274854028903   -2.55619617378046    6.78779225018394
H         3.99400001978723   -3.05403552803418    7.73800737397310
C         7.28752655316764   -3.92875640144582    6.99413791235556
H         6.29134793953508   -4.34573842062444    7.03495408936321
C        11.09334532998620   -0.82267269142864    3.25909797592104
H        11.59723327944385    0.12940136080707    3.33396765902577
C         3.26288347328466   -1.95171368879071    4.64380175735963
H         2.49225696091129   -1.97415479428227    3.88883375202486
C         7.59910473213518   -0.96762218287013    4.55408342459247
C         7.48593026741770   -1.19008817905008    0.83076508679847
H         8.34907095914296   -0.67932288363072    0.42698288714781
C         6.15813475169618   -3.17011035435222    1.03992526471168
H         5.97930879962366   -4.20771066977448    0.79776228766282
C         7.18378540364289   -3.49361176194561    4.00060768404627
H         6.17194936190874   -3.57787807151480    4.36351830559034
C         3.21616752397237   -0.07481488691874    2.48527402946023
C        10.07151412428612    2.63545829403461    3.25269112426744
C         0.62302693573207   -2.49947380326466    6.01062748769405
H         0.71958739493764   -1.75312243809927    6.79616432976833
H        -0.30229114239962   -3.04939072222754    6.16838534369680
H         0.55560233646227   -1.98258590841181    5.05692058439613
C         8.76493513530837   -2.06389415413169    7.23786655624762
H         8.92185471821862   -1.02548170011291    7.49270421566376
C         9.93399149373870    1.92699346048174    4.46307229656848
C         7.47892737768559   -2.58417395633991    7.28897697609975
C         6.59482295520279   -0.51043578287147    1.64251058578481
H         6.74882102196379    0.53653073146312    1.86171642755064
C         1.68569170894154   -4.49775540746793    4.92209254129709
H         1.61182186427241   -4.02210996918012    3.94787864925946
H         0.79086941058210   -5.09742642147856    5.07393607596810
H         2.54778860129835   -5.16231947405139    4.91624297882402
C        11.76057103365819   -1.92466816784961    2.69636991635878
H        12.77402814134653   -1.78167697200402    2.35116882829833
C        11.17779243385917   -3.16344773526473    2.57028271519495
H        11.73139951702623   -3.98006454376495    2.13057508163570
C         5.57257257031408   -3.11400718297499   11.09333995454395
H         5.87723066569921   -3.94162388876481   11.71745271720765
C         2.34685836701511    0.72595701859370    3.22055078829333
H         2.65147410754008    1.08160620223900    4.19407984159520
C         9.83652394698441   -2.86200190559166    6.87813262827993
H        10.83263666624090   -2.44405313235676    6.83375892918002
C         4.81437641817354   -0.99814392705469    9.49253228568769
H         4.52293486809992   -0.16606176862618    8.86809994268569
C         2.82132597691251   -0.51419167117986    1.23082628197681
H         3.48525195069888   -1.12296391824221    0.63460936834947
C         5.27656872597592   -2.49386113201856    1.86395836270224
H         4.41559741595377   -3.00542249211320    2.27008071587346
C         1.81018328916945   -4.19648854491804    7.38582630805709
H         2.64138331676809   -4.89479125212139    7.45693215049132
H         0.88616206083284   -4.76328697199807    7.48012070123599
H         1.86162979747973   -3.49832501698050    8.21809529111872
C         4.62717389964698   -2.21384872331493   11.54939713692709
H         4.18834261581913   -2.33579484059568   12.52870391933914
C         8.36022301646187   -4.73159559307462    6.64997222211056
H         8.20068966232285   -5.77737389665875    6.43041842125177
C         6.13501850715240   -2.96267993495510    9.83634559804295
H         6.87682237964217   -3.67122577381630    9.49825966430577
C         7.82269128767318   -4.61568867554092    3.43989132010074
H         7.26864701227104   -5.54140673834429    3.38975973581881
C        11.12996791147395    3.52106143900631    3.12113837320487
H        11.22770509189068    4.08174963271556    2.20387221071864
C        11.95939857013965    2.92495125529547    5.28456862379497
H        12.70576997385476    3.01912497567270    6.05876117817357
C         4.25155392861615   -1.15049796422252   10.74457822207793
H         3.52041569839163   -0.43724617395697   11.09610276392651
C         1.10457383865606    1.06413212394683    2.72091297759510
H         0.44066796970189    1.68426187638564    3.30491803087441
C        10.91954534844270    2.02611927266898    5.46539742426655
C         9.20337469064340   -2.27816036052475    3.57115507748421
C         0.71329988467719    0.61244635414532    1.47081459284917
H        -0.25704782428459    0.87642722969753    1.07680840370222
C         7.27053309926168   -2.52324975815321    0.52911431029850
H         7.96486397997668   -3.05508092651792   -0.10454931285433
C         1.57654204171688   -0.17164413223924    0.72777118134795
H         1.28317229500028   -0.52105331413364   -0.25180683760187
C         9.12623748010912    2.42570743534115    2.11755774269366
H         8.91570714649282    1.36648025641587    1.97611887000642
H         9.54506625074884    2.82749856357843    1.19876089823750
H         8.17907331804262    2.93487954311346    2.30521565364476
C        12.05302438270956    3.68999011543367    4.13664638368831
H        12.86053527712656    4.39654658624392    4.02156911556392
C         9.63595868745314   -4.19839592959075    6.58045678972950
H        10.47104659055266   -4.82285815456023    6.29911038496120
C        10.87620579059285    1.16766076955529    6.68490719289509
H        10.12975404061071    1.53739793193092    7.39040769979600
H        11.84071640541243    1.17421213300992    7.18563079611029
H        10.61747521270192    0.14092559756235    6.42981060753713

