51
CSD_code = RECYAC | q = 0 | S = 0 | Stoichiometry = C20H22Br2N2NiO4 | MND = 4
Ni        5.15616146243452    4.38589765714764    0.00000035237579
C         4.16940680386063    3.80509976570168    3.11779000664627
C         5.37657944442228    3.24076435330122    2.61480628342595
O         5.80822488457966    3.44021491758014    1.42431189072527
C         6.12994814301346    2.41856282218134    3.49403196503012
H         7.04425888432447    1.98487739672285    3.11861685287222
C         5.72011862190346    2.17702423994927    4.77610665735789
H         6.30644780908393    1.54873989393788    5.42968840447192
C         4.53329493537595    2.74735213767702    5.24524848540322
Br        3.98112148728449    2.39870937240295    7.03760670106915
C         3.76822784844581    3.54638757290450    4.43808666774294
H         2.85330438140004    3.98457156622839    4.80871361390304
C         3.36676222095903    4.63792744549616    2.29041673975476
H         2.48052136895213    5.04977785534714    2.77574088576257
N         3.57914989440777    4.94706416755656    1.05545101967558
C         2.62443609920995    5.88268953005577    0.48317318669887
H         1.65770807589087    5.79914698789164    0.99139908078355
H         2.50515398506585    5.68112444696243   -0.58101658871517
C         3.14618493219257    7.30936877273294    0.66959606146337
H         4.19103720441742    7.36049021524020    0.32477523844325
H         2.54488883866945    8.01224705312681    0.07318458359039
O         3.06082569952995    7.63162249077980    2.03934773876766
C         3.67773692611449    8.85047314278670    2.36073333908858
H         4.74703001500187    8.83046866963005    2.11693088481175
H         3.55204386350308    8.99001480023544    3.43232743833904
H         3.21029124351473    9.68643260116878    1.82574739320601
C         6.14293137158950    4.96671014878623   -3.11778182298249
C         4.93576399809852    5.53105445835361   -2.61479634093824
O         4.50411357042293    5.33159848891818   -1.42430489592813
C         4.18240176353454    6.35326484488398   -3.49401877316511
H         3.26809467285823    6.78695626287815   -3.11860176146003
C         4.59223323261436    6.59480504651862   -4.77609242984795
H         4.00591030498270    7.22309863957769   -5.42967075200977
C         5.77905096566600    6.02446732380653   -5.24523701549071
Br        6.33122968417979    6.37311687542906   -7.03759227875757
C         6.54411055091806    5.22542107837837   -4.43807869154096
H         7.45903088956120    4.78723183768031   -4.80870702121451
C         6.94556929786884    4.13387454950163   -2.29040978307096
H         7.83179427813811    3.72199885282200   -2.77574122849243
N         6.73317611904461    3.82473298977300   -1.05544604892508
C         7.68786525483788    2.88907465348458   -0.48318003309320
H         8.65459297106983    2.97259449993470   -0.99141019669488
H         7.80715855303169    3.09062920082188    0.58101038599219
C         7.16607993894293    1.46240861929247   -0.66960783992321
H         6.12122952136061    1.41130992792478   -0.32477867534038
H         7.76736323159265    0.75951081076010   -0.07320600397423
O         7.25141833139461    1.14016128218379   -2.03936203032660
C         6.63447419484204   -0.07867172017262   -2.36074873209113
H         5.56518412892764   -0.05864254013748   -2.11693721986421
H         6.76015482703768   -0.21821061743192   -3.43234450423660
H         7.10190327392580   -0.91464538871297   -1.82577118931645

