66
CSD_code = RECYED | q = 0 | S = 0 | Stoichiometry = C27H29BF2FeO4P2 | MND = 8
Fe        1.05132016478972    2.58881280811834    2.17130159900309
P         2.78053989556003    1.74026530336657    3.09622610986087
P         0.21005716185552    3.14949806265217    4.08143667926857
F         2.47956033108718   -1.77696450364721    1.78030979640207
F         2.72088393393881    0.09350796965301    0.53186348607974
O         0.81524878428545   -0.18067621738874    1.82648488417430
O         2.99388778414445    0.20728852063230    2.84063915449222
O         2.72849555938405    1.83718673338054    4.70070821785167
O         4.27425044773121    2.34356539602357    2.87475251731060
C         0.25909470527304    0.93132096944689    2.08621759442654
C        -1.23793684138043    0.83542709011118    2.08873675257467
C         3.69213974120694    1.17178858220772    5.51297132893470
C         5.02601800511097    2.08688131142705    1.70183456249954
C         0.49231603136621    2.70892823568899    0.13158264590527
C         1.88488688844085    2.88042729637207    0.26215176696966
C         2.11147414986805    4.05822944545699    1.02742847904241
C         0.86752003566257    4.57743792279931    1.39874590736801
C        -0.14521795367251    3.72788598484394    0.86590577650117
C         1.33237329741611    4.12380289578026    5.15297228833298
C         2.42128424460241    4.73869388782902    4.54474211084627
C         3.30057787885005    5.50480429936363    5.28563876409892
C         3.10355099093235    5.66161160818201    6.64821531349019
C         2.02655396179059    5.04536494795009    7.26168299119580
C         1.14247564714871    4.27991715696629    6.52048100869624
C        -1.18235688876726    4.33252596892599    3.94897597194960
C        -0.97718760361732    5.70456636591431    4.05158722416407
C        -2.02322934457236    6.58772381329333    3.84962747065007
C        -3.28601230135545    6.11301166290122    3.53839872945068
C        -3.50050357846568    4.74776640037158    3.43558960956348
C        -2.45587710242036    3.86489087979003    3.63508847400281
C        -0.48324154830597    1.93619115160024    5.26148932697990
C        -1.45747107494345    2.28198520375962    6.19648937201801
C        -1.93228557389824    1.33884836147511    7.09124648657653
C        -1.44463778519143    0.04289036175431    7.06265628252074
C        -0.48479434616193   -0.31170437390415    6.12816556455432
C        -0.01014320389842    0.62804214739813    5.23082084369034
B         2.28936659466088   -0.43243563055527    1.73823540080074
H        -1.67604057653309    1.75863906480452    1.73094321217206
H        -1.56444956952145    0.66487955699154    3.11243405471055
H        -1.56416611048645   -0.00711684926413    1.48202124316245
H         3.24538511380003    1.06617826252511    6.50148265321109
H         4.60218954030052    1.76914063925309    5.57772745571386
H         3.92557880216420    0.18955995007281    5.09974024303927
H         4.84067360916589    2.85979888468366    0.95404024897048
H         4.78058686530647    1.11091586136766    1.28354602489271
H         6.07806984087309    2.10531234582088    1.98856506158725
H         0.01100860526093    1.95015958429759   -0.45936186171275
H         2.63191499833385    2.30975178211750   -0.25726276439142
H         3.06940948722166    4.51771768392894    1.20225653185481
H         0.68864738748409    5.50826876637248    1.90974446322287
H        -1.19998401873369    3.94370058132165    0.88420938341132
H         2.57892211827613    4.58646790162973    3.48872776319204
H         4.14528844265944    5.97476339175981    4.80342808616842
H         3.79184181485785    6.25566131812104    7.23129152025556
H         1.87463322373398    5.15750404480536    8.32554705279082
H         0.31376762899297    3.79531863347216    7.01456743240930
H         0.00486432416105    6.08160387671633    4.30093388031349
H        -1.85173370537815    7.65095016262018    3.93528285678961
H        -4.10087965857030    6.80331572126249    3.37913976423668
H        -4.48500331701459    4.37172025269332    3.19795220034594
H        -2.62640679574213    2.80118801666354    3.56343429824229
H        -1.85625746127946    3.28709183934418    6.21652426085549
H        -2.68721994184605    1.61746360846527    7.81218842887234
H        -1.81728322541837   -0.69026604933276    7.76245637732564
H        -0.10942625232288   -1.32339671768882    6.09349913858634
H         0.72738774181406    0.35319986523209    4.49144049751789

