45
CSD_code = REDBUZ | q = 0 | S = 0 | Stoichiometry = C10H24N2O2RuS6 | MND = 6
Ru        2.88048337345669    7.11277264109390    9.84191657225152
S         1.47335060666005    8.97072589556868   10.48218323437134
S         4.23552054572971    5.11064276732852    9.79363737709481
S         1.44805238743192    5.26130692227574   10.49533557101630
S         3.27970094491309    7.52948385187887   12.19244338669540
S         2.20870677403688    6.89781699478590    7.73954362754978
S         4.46828827639470    8.60734484262900    9.31281952873664
N         2.95503813382258    3.13045680848301   11.05037996654031
N         2.12005499576763    9.80232073714510   12.93557644330932
O         5.14735534538039    9.19304602822395   10.45806088256599
O         2.96109299147108    7.62645703145393    6.72307488936892
C         2.89198912035958    4.34922992462590   10.52156558838244
C         2.28021586129835    8.88257590907842   11.98821770116369
C         4.17682582591140    2.36708685651881   11.08138559325450
H         4.96303037163553    2.91691180067769   10.57005936799418
H         4.02353751654454    1.40676694173874   10.58480194837084
H         4.47815722369037    2.18685202402017   12.11564592643272
C         1.22191882834663   10.91861950773005   12.78731311832953
H         0.64845718103798   10.80546981050365   11.87001426630110
H         1.78591992770679   11.85375038251816   12.74654231665376
H         0.53872603560737   10.95322653602010   13.63825749399992
C         0.46304722332637    7.37059096036428    7.53679743938350
H         0.38327230963884    8.42307206518323    7.79118202950825
H        -0.11689810278787    6.77618281302001    8.23515602396536
H         0.16031176598517    7.20098144439943    6.51052766818670
C         5.75036923745492    7.93080769911677    8.21780727657015
H         6.50387996138203    8.69143021622529    8.05235664281562
H         5.25980543792064    7.63794828022465    7.29632516451581
H         6.18353334212162    7.06881727949398    8.71632311790640
C         3.97579485767576   10.01856213449410    8.27324624818621
H         3.18800359896526   10.55203674931011    8.79658529436146
H         3.61748396624004    9.63107947136101    7.32773024623182
H         4.84530112700809   10.65321761767666    8.15219445396466
C         1.82377628783787    2.50851126820890   11.69072982914677
H         2.07523968359578    2.25949601227264   12.72368081412413
H         1.55435068609225    1.59182186021641   11.16145846840621
H         0.97784615807379    3.19151999948672   11.68107625336076
C         2.04893240613180    5.19637116503879    7.09825063897353
H         1.71380459255967    5.25628005475334    6.06992042877834
H         1.34353482387145    4.65881515433846    7.72249475835887
H         3.03126032045374    4.73606677272390    7.15037643292378
C         2.84333866961508    9.74062738350963   14.18045625568761
H         3.66873528127759    9.03792891684188   14.08621159856775
H         2.18562533728968    9.41137556935827   14.98898345075797
H         3.23522876106934   10.73019489809600   14.41855466492429

