94
CSD_code = REDBUX | q = 0 | S = 0 | Stoichiometry = C48H38Cl3N2P2Rh | MND = 6
Rh        3.37378021089576   24.32867642918864    0.30427895747576
Cl        6.73844838584098   22.49821383373816   -4.03704250181142
Cl        5.34898609068854   23.45825637897161    1.18174995583234
Cl        2.35703366127088   24.51921588960515    2.48442356496905
N         1.90317647768916   25.20978282583759   -0.73633821936846
N         1.99750694459885   25.17396350067223   -2.00442228522372
C         0.65633568672290   27.25245752780429   -0.96399425548121
C        -0.34595145914653   28.10835910173796   -0.55954047749354
C        -1.15669530737353   27.77053167919604    0.51274132911258
C        -0.96161277788968   26.56781495872765    1.17075792397735
C         0.04282406373016   25.70399441722362    0.77790361694146
C         0.87013947511651   26.04801583912473   -0.28780369209796
C         4.01939202352624   24.01125099669811   -1.56602561524968
C         5.15906608863704   23.39932022073793   -2.06712432751342
C         5.31635499393945   23.25849620049122   -3.43377506009962
C         4.36115579561939   23.70971949513895   -4.34520928331825
C         3.23480203865726   24.33672526676149   -3.87505846400428
C         3.06592994262614   24.49557967491136   -2.49314145593696
P         4.56006240084808   26.29111631449130    0.48339091101414
P         2.41063110672763   22.24049429727330    0.34562268637480
C         5.21269311535969   26.78624744623630   -2.17815078411578
C         6.02375124853940   26.70364233254761   -3.29391262049949
C         7.31408298026790   26.21158098379937   -3.17937647946166
C         7.78977701850904   25.79842816853007   -1.94622385771027
C         6.98411207330635   25.88326107588959   -0.82499285363690
C         5.69486892831272   26.39558016300101   -0.93075783946727
C         6.59258328508091   27.61832247970828    1.80785416796859
C         7.36922909368664   27.95652447393730    2.89875901656115
C         7.16819893056061   27.32666022877440    4.11740140244523
C         6.18045507605369   26.36572239055138    4.24420693539325
C         5.39853248362885   26.02035716705344    3.15549668565329
C         5.61492262028478   26.63304701569461    1.92915803922550
C         2.62030690573030   27.93852839832994    1.46999036788517
C         1.90861810744763   29.10977878488186    1.64207485659085
C         2.21250125015943   30.22218410648178    0.87419124161046
C         3.24279633233328   30.16448492758653   -0.04902246106622
C         3.96555944386951   28.99644301495990   -0.22042611945351
C         3.64285487147770   27.87023733523090    0.52589344679061
C         2.18138797941358   20.66287925211318   -2.04522754024573
C         2.74816686998633   19.85985309521998   -3.02130332827547
C         4.08533169159436   19.51092786448174   -2.95395488669230
C         4.86024772587482   19.95057691505514   -1.89229459220891
C         4.30175083772755   20.75454432895792   -0.91884204963342
C         2.96025094589046   21.12755157062018   -0.99507774354551
C         2.08891797000954   19.82268147146445    1.59719462766379
C         2.23481961952018   18.88298390121041    2.59752044778357
C         2.94960540943078   19.19623975188046    3.74435686295659
C         3.51357878006193   20.45121654729450    3.88516750665559
C         3.36854961640652   21.40074396369567    2.88678125793336
C         2.65428181314164   21.09063016752843    1.73952869632915
C         0.00087414072277   22.79724812703105   -0.94758726307877
C        -1.36850995282218   22.97467787619135   -1.01057818711986
C        -2.15626707387139   22.70690137314609    0.09726697851477
C        -1.56851339353316   22.26555891524645    1.27072327645081
C        -0.19878422870907   22.08135914828894    1.33859342862961
C         0.59649858673927   22.33086834854407    0.22378589612114
H         1.30196772099727   27.50760416132764   -1.79123688383607
H        -0.49237392043532   29.04346405064344   -1.07916844935543
H        -1.93969812956108   28.44260188192278    0.83104473920279
H        -1.59774548161858   26.29294659029479    1.99840803090976
H         0.17917653545980   24.76800236821691    1.29207442234425
H         5.93127079341625   23.04349133461466   -1.40209474845937
H         4.52045163199474   23.56909557456316   -5.40260410681222
H         2.47637645085466   24.71240246147159   -4.54434341115019
H         4.19446331777470   27.14053769144760   -2.27524899876894
H         5.64370168862493   27.01088505656272   -4.25741803659913
H         7.94237152967243   26.13713360583169   -4.05448222270578
H         8.78865989572552   25.39692060381813   -1.85911322720038
H         7.34268520862684   25.53671019382012    0.13406853641036
H         6.74539411202534   28.11382257239470    0.85815379369190
H         8.13246567748402   28.71528178927594    2.79929681700754
H         7.78012227777340   27.59136786927973    4.96737476852395
H         6.01499764330312   25.88055892273534    5.19478834798131
H         4.62431706453125   25.27522087058671    3.25965626895336
H         2.39050373487053   27.06661351105904    2.06886706229721
H         1.11676149856595   29.15370616428763    2.37469419139786
H         1.65411998726220   31.13802733619474    1.00144062815187
H         3.49239599615520   31.03662834880961   -0.63635779068470
H         4.78020226854560   28.97037860043713   -0.93002604302335
H         1.13083553742686   20.90676659895780   -2.10274387598571
H         2.13665655722679   19.50445079041769   -3.83825451914775
H         4.52170961092439   18.89149065089326   -3.72349723820612
H         5.90101332649728   19.66989660200205   -1.82807570422139
H         4.89745019236785   21.10634678424869   -0.08628169413776
H         1.53292259724929   19.58065319736213    0.70027041964734
H         1.79292086778124   17.90366902454450    2.48340399381862
H         3.06520984590873   18.45848819191461    4.52502750645841
H         4.07191779972040   20.69756476153351    4.77595890956534
H         3.81087346392109   22.37686339291145    3.00383847995773
H         0.61112139626094   23.03773233463479   -1.80783475464280
H        -1.82011250595624   23.33346121874314   -1.92390064862899
H        -3.22506486971590   22.85294020874655    0.04782723869071
H        -2.17715671613632   22.07144209856158    2.14162031454115
H         0.25911844956771   21.76047462545207    2.26315804298775

