53
CSD_code = REDCAG | q = 0 | S = 0 | Stoichiometry = C14H28N2O2RuS6 | MND = 6
Ru        1.98653575439626    2.02053450752808    6.43441500933302
S         3.32055477702976    3.32795942482105    8.01841790920389
S         1.32146653716128    0.57621819897424    7.98553646896828
S         0.57698399230557    3.82309309242972    7.21390190230625
S         3.06686055319796    3.27015806060032    4.62783582770041
S         0.45643386758780    1.14479310292576    5.08375806604548
S         3.80145520684388    0.64419896991750    5.61953574185413
N         5.30754133770940    2.03893794957351    3.93809188847169
O        -0.82327701193964    1.03015778339179    5.76031640759139
N         2.02089877609599    5.55376544933754    8.61750188896430
O         1.22712321278713   -0.76441711604251    7.43561735113852
C         0.93676259777427    6.51391948085999    8.58828952525004
H         0.16129041808876    6.21435690356063    9.30226654095454
H         0.48841196575037    6.53971595710159    7.59288812362582
C         4.19400753450008    1.99111068652923    4.65130120455307
C         1.60588050782278    7.82222515083426    8.99816187764528
H         2.04083718487492    8.30807392956491    8.12451841836447
H         0.91032548820276    8.51069221326666    9.47215641613562
C         5.71596512814854    3.18697750305510    3.15468034794022
H         5.51086802914796    4.10727991681853    3.70585400891172
H         5.14412861832561    3.21697630881007    2.22024902337991
C         1.97648723377328    4.37718023465337    8.01371945246142
C         3.20297459664061    6.06998266736549    9.27822842726611
H         3.98225173535328    6.26605454652785    8.53319960460517
H         3.59182920162967    5.33217800638004    9.98361880626127
C         0.80662710444370   -0.47448714626001    4.34054025943433
H         1.00883777076199   -1.14760327784161    5.16905549454569
H         1.68014204348160   -0.37811556402705    3.70536102775420
H        -0.06679638493316   -0.79568502451305    3.78633673666875
C         6.30568005928562    0.98839284416022    3.94679054448778
H         5.83361132775366    0.02109936652939    3.76180327968711
H         6.78431631908357    0.94659293359315    4.93152588998090
C         2.38514645190061    0.43580111317728    9.46381151424045
H         2.01922377601744   -0.38369637101900   10.07074570649580
H         2.36164888571819    1.37830446228599    9.99894959982906
H         3.39181973428347    0.22914475491165    9.11318815319922
C         0.12395287839953    2.06312251373593    3.54026643338771
H        -0.72036449361974    1.60063594121622    3.04322440393776
H         1.01664156198191    2.04419236457567    2.92545252444746
H        -0.11415993722515    3.08410771771564    3.82302003971520
C        -0.24690966169918    0.90825747565844    8.83843069262127
H        -0.99987918671654    0.99412453089086    8.05997383060639
H        -0.15088283344553    1.84253046895198    9.38043796022992
H        -0.46465168735660    0.07591005203047    9.49643091974047
C         7.28377203888347    1.41304089416701    2.85582221358388
H         8.28909488420592    1.04054967169997    3.03703286583128
H         6.94486086925103    1.04832009342272    1.88572598328125
C         2.71331309867089    7.35353762013308    9.94168786305366
H         2.29716653494654    7.13193984219630   10.92490843305446
H         3.50844434609365    8.08641754834732   10.05615861072774
C         7.19957168923205    2.93853926812828    2.90022429415203
H         7.54472769739490    3.40762307483599    1.98186426507881
H         7.78994786700711    3.32047990004406    3.73327022047365

