44
CSD_code = REDHAL | q = 1 | S = 0 | Stoichiometry = C15H24FeNO3(1+) | MND = 8
C         9.75586433538583    2.56310473053673    3.01172181165160
C        10.51372162974227    2.97542000134317    1.89246615857920
C        11.72761420248331    2.20388810004761    1.87731524444871
C        11.76005447710908    1.39929997165778    3.06891780272798
C        10.53161071737449    1.58079898072199    3.74396422582203
C         8.49695615366637    3.20477673880071    3.49281356134104
H         8.74576239878625    4.09580851350999    4.07124928494008
H         7.92476845128951    2.54286300365507    4.13820173268173
H         7.86896843188330    3.51592990935517    2.66146515985258
C        10.19049196832907    4.10278447650831    0.97245345400532
H         9.11822746597358    4.25610740074712    0.89083251668214
H        10.59466952753570    3.93442307876404   -0.02172212500176
H        10.63375793481122    5.01974133114452    1.36331221020891
C        12.88158558815649    2.43330822023452    0.96177529101950
H        13.51075951027403    3.22897183913974    1.36359604077098
H        12.54735728518902    2.73608216783299   -0.02673744606835
H        13.49181326280712    1.53969761454002    0.86345684699747
C        12.93641178680102    0.62987596052242    3.56533110252624
H        13.52365184180789    0.22644806296152    2.74525830662018
H        12.63333665169992   -0.18831876656031    4.21235024648530
H        13.57990441487380    1.29561105832906    4.14214416858308
C        10.19816502839578    1.05046562800504    5.09898802955739
H        10.64963933874776    1.69147584843498    5.85764175246509
H        10.59199877945712    0.04653214336055    5.23879084880408
H         9.12560621692913    1.03652063316208    5.27617805933080
C         9.65999164936228    0.97295460009450    0.02740356440124
C        10.94864899479619   -0.66621454908577    1.25076454564075
C         7.75220935160433   -1.25534046959869    1.49601641724945
H         8.50520127343044   -2.04347181998310    1.43839722011188
H         7.57899835308447   -0.86401542248600    0.49243841948054
C         6.43507279920892   -1.82282230860545    2.02741170791852
H         6.58613621168644   -2.34425305192039    2.97360115171228
H         5.72433574424495   -1.00779406531581    2.17891648585241
C         5.83044552711024   -2.78842147909190    1.00910508617913
H         6.52624446405017   -3.61891777176407    0.82479572766896
H         4.89524703076906   -3.19921823913089    1.40959257797177
N         8.27904107257989   -0.16906801611061    2.33907989381671
H         8.39888951654463   -0.54115558930206    3.28231935095599
H         7.54949899571301    0.54240923736771    2.40298093569950
O         9.48663356588373    1.10822968009316   -1.08778729646703
O        11.57012164638551   -1.55091083316081    0.89699407655361
O         5.59540328047456   -2.06506648740871   -0.17799920693696
H         5.14795645336467   -2.63135851836207   -0.81443128124364
Fe       10.09182667020177    0.79771845700723    1.72903633840131

